Auto-Transcript Start Time:  20:54:48, 19 Mar 2026 笢弊梓袧奀潔 
Current Directory: "F:\pyFluent\workspace\DMP-test-1"
Information: The server has started and is running.

              Welcome to ANSYS Fluent 2025 R2

              Copyright 1987-2025 ANSYS, Inc. All Rights Reserved.
              Unauthorized use, distribution or duplication is prohibited.
              This product is subject to U.S. laws governing export and re-export.
              For full Legal Notice, see documentation.

Build Time: Jun 16 2025 10:46:43 EDT  Build Id: 10204  
 
Connected License Server List:	1055@localhost
Host spawning Node 0 on machine "LLG-WS" (win64).

-------------------------------------------------------------------------------
ID    Hostname  Core   O.S.         PID    Vendor                            
-------------------------------------------------------------------------------
n15   LLG-WS    16/20  Windows-x64  2220   Intel(R) Core(TM) Ultra 7 265K    
n14   LLG-WS    15/20  Windows-x64  37248  Intel(R) Core(TM) Ultra 7 265K    
n13   LLG-WS    14/20  Windows-x64  30696  Intel(R) Core(TM) Ultra 7 265K    
n12   LLG-WS    13/20  Windows-x64  3432   Intel(R) Core(TM) Ultra 7 265K    
n11   LLG-WS    12/20  Windows-x64  44728  Intel(R) Core(TM) Ultra 7 265K    
n10   LLG-WS    11/20  Windows-x64  46416  Intel(R) Core(TM) Ultra 7 265K    
n9    LLG-WS    10/20  Windows-x64  49188  Intel(R) Core(TM) Ultra 7 265K    
n8    LLG-WS    9/20   Windows-x64  53440  Intel(R) Core(TM) Ultra 7 265K    
n7    LLG-WS    8/20   Windows-x64  71876  Intel(R) Core(TM) Ultra 7 265K    
n6    LLG-WS    7/20   Windows-x64  13824  Intel(R) Core(TM) Ultra 7 265K    
n5    LLG-WS    6/20   Windows-x64  24076  Intel(R) Core(TM) Ultra 7 265K    
n4    LLG-WS    5/20   Windows-x64  23744  Intel(R) Core(TM) Ultra 7 265K    
n3    LLG-WS    4/20   Windows-x64  58044  Intel(R) Core(TM) Ultra 7 265K    
n2    LLG-WS    3/20   Windows-x64  41940  Intel(R) Core(TM) Ultra 7 265K    
n1    LLG-WS    2/20   Windows-x64  54364  Intel(R) Core(TM) Ultra 7 265K    
n0*   LLG-WS    1/20   Windows-x64  63256  Intel(R) Core(TM) Ultra 7 265K    
host  LLG-WS           Windows-x64  68580  Intel(R) Core(TM) Ultra 7 265K    

MPI Option Selected: intel
Selected system interconnect: default
-------------------------------------------------------------------------------

Cleanup script file is F:\\pyFluent\\workspace\\DMP-test-1\\cleanup-fluent-LLG-WS-68580.bat

Graphics driver currently in use: dx11


> 
Error: UDF library "libudf" not available at
F:\pyFluent\workspace\DMP-test-1
Error Object: #f

Error: UDF library "libudf" not available at
F:\pyFluent\workspace\DMP-test-1
Error Object: #f

Error: UDF library "libudf" not available at
F:\pyFluent\workspace\DMP-test-1
Error Object: #f

Error: UDF library "libudf" not available at
F:\pyFluent\workspace\DMP-test-1
Error Object: #f

LLG-WS: Opening library "F:\\pyFluent\\workspace\\DMP-test-1\\libudf"...
Done.
You need to define up to 60 extra UDMs in GUI and then reload current library libudf
60 UDMs have been reserved by the current library libudf

UDM Offset for Current Loaded Library = -1

=====================================================

LLG-WS: Opening library "F:\\pyFluent\\workspace\\DMP-test-1\\libudf"...
	init_paraffin_from_surface
	paraffin_pyrolysis_law
	paraffin_pyrolysis_source
	dpm_switch
	filter_and_remove
	limit_to_e_minus_four
	fuel_wall_temperature
	Enable_Ent_Source
	Disable_Ent_Source
	Fit_Mass_Flow_Function_Fast
	Fit_Mass_Flow_Function
	Print_Mass_Flow_Function
	rename_udm
	Grid_Motion
	Total_Mass_Source
	X_Mom_Source
	Y_Mom_Source
	Z_Mom_Source
	C2H4_Mass_Source
	H2_Mass_Source
	Energy_Source_t
	Non_Source
	Vari_Source
	Constan_Sources
	Cal_Rho_Gas
	set_r_to

UDF Autorun:
rename_udm
You need to define up to 60 extra UDMs in GUI and then reload current library libudf
60 UDMs have been reserved by the current library libudf

UDM Offset for Current Loaded Library = -1

=====================================================

Done.
You need to define up to 60 extra UDMs in GUI and then reload current library libudf
60 UDMs have been reserved by the current library libudf

UDM Offset for Current Loaded Library = -1

=====================================================
You need to define up to 60 extra UDMs in GUI and then reload current library libudf
60 UDMs have been reserved by the current library libudf

UDM Offset for Current Loaded Library = -1

=====================================================
You need to define up to 60 extra UDMs in GUI and then reload current library libudf
60 UDMs have been reserved by the current library libudf

UDM Offset for Current Loaded Library = -1

=====================================================
You need to define up to 60 extra UDMs in GUI and then reload current library libudf
60 UDMs have been reserved by the current library libudf

UDM Offset for Current Loaded Library = -1

=====================================================
You need to define up to 60 extra UDMs in GUI and then reload current library libudf
60 UDMs have been reserved by the current library libudf

UDM Offset for Current Loaded Library = -1

=====================================================
You need to define up to 60 extra UDMs in GUI and then reload current library libudf
60 UDMs have been reserved by the current library libudf

UDM Offset for Current Loaded Library = -1

=====================================================
You need to define up to 60 extra UDMs in GUI and then reload current library libudf
60 UDMs have been reserved by the current library libudf

UDM Offset for Current Loaded Library = -1

=====================================================
You need to define up to 60 extra UDMs in GUI and then reload current library libudf
60 UDMs have been reserved by the current library libudf

UDM Offset for Current Loaded Library = -1

=====================================================
You need to define up to 60 extra UDMs in GUI and then reload current library libudf
60 UDMs have been reserved by the current library libudf

UDM Offset for Current Loaded Library = -1

=====================================================
You need to define up to 60 extra UDMs in GUI and then reload current library libudf
60 UDMs have been reserved by the current library libudf

UDM Offset for Current Loaded Library = -1

=====================================================
You need to define up to 60 extra UDMs in GUI and then reload current library libudf
60 UDMs have been reserved by the current library libudf

UDM Offset for Current Loaded Library = -1

=====================================================
You need to define up to 60 extra UDMs in GUI and then reload current library libudf
60 UDMs have been reserved by the current library libudf

UDM Offset for Current Loaded Library = -1

=====================================================
You need to define up to 60 extra UDMs in GUI and then reload current library libudf
60 UDMs have been reserved by the current library libudf

UDM Offset for Current Loaded Library = -1

=====================================================
You need to define up to 60 extra UDMs in GUI and then reload current library libudf
60 UDMs have been reserved by the current library libudf

UDM Offset for Current Loaded Library = -1

=====================================================
You need to define up to 60 extra UDMs in GUI and then reload current library libudf
60 UDMs have been reserved by the current library libudf

UDM Offset for Current Loaded Library = -1

=====================================================

LLG-WS: Opening library "F:\\pyFluent\\workspace\\DMP-test-1\\libudf"...
Done.
You need to define up to 60 extra UDMs in GUI and then reload current library libudf
60 UDMs have been reserved by the current library libudf

UDM Offset for Current Loaded Library = -1

=====================================================

LLG-WS: Opening library "F:\\pyFluent\\workspace\\DMP-test-1\\libudf"...
	init_paraffin_from_surface
	paraffin_pyrolysis_law
	paraffin_pyrolysis_source
	dpm_switch
	filter_and_remove
	limit_to_e_minus_four
	fuel_wall_temperature
	Enable_Ent_Source
	Disable_Ent_Source
	Fit_Mass_Flow_Function_Fast
	Fit_Mass_Flow_Function
	Print_Mass_Flow_Function
	rename_udm
	Grid_Motion
	Total_Mass_Source
	X_Mom_Source
	Y_Mom_Source
	Z_Mom_Source
	C2H4_Mass_Source
	H2_Mass_Source
	Energy_Source_t
	Non_Source
	Vari_Source
	Constan_Sources
	Cal_Rho_Gas
	set_r_to

UDF Autorun:
rename_udm
You need to define up to 60 extra UDMs in GUI and then reload current library libudf
60 UDMs have been reserved by the current library libudf

UDM Offset for Current Loaded Library = -1

=====================================================

Done.
You need to define up to 60 extra UDMs in GUI and then reload current library libudf
60 UDMs have been reserved by the current library libudf

UDM Offset for Current Loaded Library = -1

=====================================================
You need to define up to 60 extra UDMs in GUI and then reload current library libudf
60 UDMs have been reserved by the current library libudf

UDM Offset for Current Loaded Library = -1

=====================================================
You need to define up to 60 extra UDMs in GUI and then reload current library libudf
60 UDMs have been reserved by the current library libudf

UDM Offset for Current Loaded Library = -1

=====================================================
You need to define up to 60 extra UDMs in GUI and then reload current library libudf
60 UDMs have been reserved by the current library libudf

UDM Offset for Current Loaded Library = -1

=====================================================
You need to define up to 60 extra UDMs in GUI and then reload current library libudf
60 UDMs have been reserved by the current library libudf

UDM Offset for Current Loaded Library = -1

=====================================================
You need to define up to 60 extra UDMs in GUI and then reload current library libudf
60 UDMs have been reserved by the current library libudf

UDM Offset for Current Loaded Library = -1

=====================================================
You need to define up to 60 extra UDMs in GUI and then reload current library libudf
60 UDMs have been reserved by the current library libudf

UDM Offset for Current Loaded Library = -1

=====================================================
You need to define up to 60 extra UDMs in GUI and then reload current library libudf
60 UDMs have been reserved by the current library libudf

UDM Offset for Current Loaded Library = -1

=====================================================
You need to define up to 60 extra UDMs in GUI and then reload current library libudf
60 UDMs have been reserved by the current library libudf

UDM Offset for Current Loaded Library = -1

=====================================================
You need to define up to 60 extra UDMs in GUI and then reload current library libudf
60 UDMs have been reserved by the current library libudf

UDM Offset for Current Loaded Library = -1

=====================================================
You need to define up to 60 extra UDMs in GUI and then reload current library libudf
60 UDMs have been reserved by the current library libudf

UDM Offset for Current Loaded Library = -1

=====================================================
You need to define up to 60 extra UDMs in GUI and then reload current library libudf
60 UDMs have been reserved by the current library libudf

UDM Offset for Current Loaded Library = -1

=====================================================
You need to define up to 60 extra UDMs in GUI and then reload current library libudf
60 UDMs have been reserved by the current library libudf

UDM Offset for Current Loaded Library = -1

=====================================================
You need to define up to 60 extra UDMs in GUI and then reload current library libudf
60 UDMs have been reserved by the current library libudf

UDM Offset for Current Loaded Library = -1

=====================================================
You need to define up to 60 extra UDMs in GUI and then reload current library libudf
60 UDMs have been reserved by the current library libudf

UDM Offset for Current Loaded Library = -1

=====================================================
Shutting down Server...
Services Shutdown...Done.
Server Shutdown...Done.
Queue Cleared...Done.
Shutdown Complete.
Auto-Transcript Stop Time:  21:27:35, 19 Mar 2026 笢弊梓袧奀潔 
Total Transcript Time: 32 Minute 47 Second.
