Auto-Transcript Start Time:  16:50:43, 19 Mar 2026 ÖĐąú±ę×ĽĘ±Ľä 
Current Directory: "F:\pyFluent\workspace\DMP-test-1"
Information: The server has started and is running.

              Welcome to ANSYS Fluent 2025 R2

              Copyright 1987-2025 ANSYS, Inc. All Rights Reserved.
              Unauthorized use, distribution or duplication is prohibited.
              This product is subject to U.S. laws governing export and re-export.
              For full Legal Notice, see documentation.

Build Time: Jun 16 2025 10:46:43 EDT  Build Id: 10204  
 
Connected License Server List:	1055@localhost
Host spawning Node 0 on machine "LLG-WS" (win64).

-------------------------------------------------------------------------------
ID    Hostname  Core   O.S.         PID    Vendor                            
-------------------------------------------------------------------------------
n17   LLG-WS    18/20  Windows-x64  72980  Intel(R) Core(TM) Ultra 7 265K    
n16   LLG-WS    17/20  Windows-x64  66856  Intel(R) Core(TM) Ultra 7 265K    
n15   LLG-WS    16/20  Windows-x64  70092  Intel(R) Core(TM) Ultra 7 265K    
n14   LLG-WS    15/20  Windows-x64  41968  Intel(R) Core(TM) Ultra 7 265K    
n13   LLG-WS    14/20  Windows-x64  29816  Intel(R) Core(TM) Ultra 7 265K    
n12   LLG-WS    13/20  Windows-x64  35692  Intel(R) Core(TM) Ultra 7 265K    
n11   LLG-WS    12/20  Windows-x64  70512  Intel(R) Core(TM) Ultra 7 265K    
n10   LLG-WS    11/20  Windows-x64  29164  Intel(R) Core(TM) Ultra 7 265K    
n9    LLG-WS    10/20  Windows-x64  37280  Intel(R) Core(TM) Ultra 7 265K    
n8    LLG-WS    9/20   Windows-x64  24180  Intel(R) Core(TM) Ultra 7 265K    
n7    LLG-WS    8/20   Windows-x64  65568  Intel(R) Core(TM) Ultra 7 265K    
n6    LLG-WS    7/20   Windows-x64  58148  Intel(R) Core(TM) Ultra 7 265K    
n5    LLG-WS    6/20   Windows-x64  61596  Intel(R) Core(TM) Ultra 7 265K    
n4    LLG-WS    5/20   Windows-x64  39592  Intel(R) Core(TM) Ultra 7 265K    
n3    LLG-WS    4/20   Windows-x64  31552  Intel(R) Core(TM) Ultra 7 265K    
n2    LLG-WS    3/20   Windows-x64  67956  Intel(R) Core(TM) Ultra 7 265K    
n1    LLG-WS    2/20   Windows-x64  75400  Intel(R) Core(TM) Ultra 7 265K    
n0*   LLG-WS    1/20   Windows-x64  44240  Intel(R) Core(TM) Ultra 7 265K    
host  LLG-WS           Windows-x64  5228   Intel(R) Core(TM) Ultra 7 265K    

MPI Option Selected: intel
Selected system interconnect: default
-------------------------------------------------------------------------------

Cleanup script file is F:\\pyFluent\\workspace\\DMP-test-1\\cleanup-fluent-LLG-WS-5228.bat

Graphics driver currently in use: dx11


> Shutting down Server...
Services Shutdown...Done.
Server Shutdown...Done.
Queue Cleared...Done.
Shutdown Complete.
Auto-Transcript Stop Time:  16:55:34, 19 Mar 2026 ÖĐąú±ę×ĽĘ±Ľä 
Total Transcript Time: 4 Minute 51 Second.
