Auto-Transcript Start Time:  18:33:31, 19 Mar 2026 ÖÐđúąęŨžĘąžä 
Current Directory: "F:\pyFluent\workspace\DMP-test-1"
Information: The server has started and is running.

              Welcome to ANSYS Fluent 2025 R2

              Copyright 1987-2025 ANSYS, Inc. All Rights Reserved.
              Unauthorized use, distribution or duplication is prohibited.
              This product is subject to U.S. laws governing export and re-export.
              For full Legal Notice, see documentation.

Build Time: Jun 16 2025 10:46:43 EDT  Build Id: 10204  
 
Connected License Server List:	1055@localhost
Host spawning Node 0 on machine "LLG-WS" (win64).

-------------------------------------------------------------------------------
ID    Hostname  Core   O.S.         PID    Vendor                            
-------------------------------------------------------------------------------
n15   LLG-WS    16/20  Windows-x64  76688  Intel(R) Core(TM) Ultra 7 265K    
n14   LLG-WS    15/20  Windows-x64  39676  Intel(R) Core(TM) Ultra 7 265K    
n13   LLG-WS    14/20  Windows-x64  75708  Intel(R) Core(TM) Ultra 7 265K    
n12   LLG-WS    13/20  Windows-x64  46656  Intel(R) Core(TM) Ultra 7 265K    
n11   LLG-WS    12/20  Windows-x64  8524   Intel(R) Core(TM) Ultra 7 265K    
n10   LLG-WS    11/20  Windows-x64  37692  Intel(R) Core(TM) Ultra 7 265K    
n9    LLG-WS    10/20  Windows-x64  11456  Intel(R) Core(TM) Ultra 7 265K    
n8    LLG-WS    9/20   Windows-x64  72136  Intel(R) Core(TM) Ultra 7 265K    
n7    LLG-WS    8/20   Windows-x64  53592  Intel(R) Core(TM) Ultra 7 265K    
n6    LLG-WS    7/20   Windows-x64  53048  Intel(R) Core(TM) Ultra 7 265K    
n5    LLG-WS    6/20   Windows-x64  69740  Intel(R) Core(TM) Ultra 7 265K    
n4    LLG-WS    5/20   Windows-x64  73520  Intel(R) Core(TM) Ultra 7 265K    
n3    LLG-WS    4/20   Windows-x64  42820  Intel(R) Core(TM) Ultra 7 265K    
n2    LLG-WS    3/20   Windows-x64  73504  Intel(R) Core(TM) Ultra 7 265K    
n1    LLG-WS    2/20   Windows-x64  53644  Intel(R) Core(TM) Ultra 7 265K    
n0*   LLG-WS    1/20   Windows-x64  20748  Intel(R) Core(TM) Ultra 7 265K    
host  LLG-WS           Windows-x64  12304  Intel(R) Core(TM) Ultra 7 265K    

MPI Option Selected: intel
Selected system interconnect: default
-------------------------------------------------------------------------------

Cleanup script file is F:\\pyFluent\\workspace\\DMP-test-1\\cleanup-fluent-LLG-WS-12304.bat

Graphics driver currently in use: dx11


> Shutting down Server...
Services Shutdown...Done.
Server Shutdown...Done.
Queue Cleared...Done.
Shutdown Complete.
Auto-Transcript Stop Time:  18:39:58, 19 Mar 2026 ÖÐđúąęŨžĘąžä 
Total Transcript Time: 6 Minute 27 Second.
