Auto-Transcript Start Time:  16:55:54, 19 Mar 2026 笢弊梓袧奀潔 
Current Directory: "F:\pyFluent\workspace\DMP-test-1"
Information: The server has started and is running.

              Welcome to ANSYS Fluent 2025 R2

              Copyright 1987-2025 ANSYS, Inc. All Rights Reserved.
              Unauthorized use, distribution or duplication is prohibited.
              This product is subject to U.S. laws governing export and re-export.
              For full Legal Notice, see documentation.

Build Time: Jun 16 2025 10:46:43 EDT  Build Id: 10204  
 
Connected License Server List:	1055@localhost
Host spawning Node 0 on machine "LLG-WS" (win64).

-------------------------------------------------------------------------------
ID    Hostname  Core   O.S.         PID    Vendor                            
-------------------------------------------------------------------------------
n17   LLG-WS    18/20  Windows-x64  32424  Intel(R) Core(TM) Ultra 7 265K    
n16   LLG-WS    17/20  Windows-x64  31040  Intel(R) Core(TM) Ultra 7 265K    
n15   LLG-WS    16/20  Windows-x64  52196  Intel(R) Core(TM) Ultra 7 265K    
n14   LLG-WS    15/20  Windows-x64  23636  Intel(R) Core(TM) Ultra 7 265K    
n13   LLG-WS    14/20  Windows-x64  15784  Intel(R) Core(TM) Ultra 7 265K    
n12   LLG-WS    13/20  Windows-x64  76608  Intel(R) Core(TM) Ultra 7 265K    
n11   LLG-WS    12/20  Windows-x64  64508  Intel(R) Core(TM) Ultra 7 265K    
n10   LLG-WS    11/20  Windows-x64  23556  Intel(R) Core(TM) Ultra 7 265K    
n9    LLG-WS    10/20  Windows-x64  71044  Intel(R) Core(TM) Ultra 7 265K    
n8    LLG-WS    9/20   Windows-x64  812    Intel(R) Core(TM) Ultra 7 265K    
n7    LLG-WS    8/20   Windows-x64  72412  Intel(R) Core(TM) Ultra 7 265K    
n6    LLG-WS    7/20   Windows-x64  27856  Intel(R) Core(TM) Ultra 7 265K    
n5    LLG-WS    6/20   Windows-x64  67304  Intel(R) Core(TM) Ultra 7 265K    
n4    LLG-WS    5/20   Windows-x64  48548  Intel(R) Core(TM) Ultra 7 265K    
n3    LLG-WS    4/20   Windows-x64  31124  Intel(R) Core(TM) Ultra 7 265K    
n2    LLG-WS    3/20   Windows-x64  74716  Intel(R) Core(TM) Ultra 7 265K    
n1    LLG-WS    2/20   Windows-x64  71228  Intel(R) Core(TM) Ultra 7 265K    
n0*   LLG-WS    1/20   Windows-x64  45700  Intel(R) Core(TM) Ultra 7 265K    
host  LLG-WS           Windows-x64  72792  Intel(R) Core(TM) Ultra 7 265K    

MPI Option Selected: intel
Selected system interconnect: default
-------------------------------------------------------------------------------

Cleanup script file is F:\\pyFluent\\workspace\\DMP-test-1\\cleanup-fluent-LLG-WS-72792.bat

Graphics driver currently in use: dx11


> Fast-loading "D:\WORKST~1\Ansys\ANSYSI~1\v252\fluent\fluent25.2.0\\addons\afd\lib\hdfio.bin"
Done.
Multicore processors detected. Processor affinity set!

Reading from LLG-WS:"D:\Workshop\Workbench\DPM\dpm-v1-1_files\dp0\FLU-4\Fluent\SYS-2-38.cas.h5" in NODE0 mode ...
  Reading mesh ...
      187195 cells,     2 cell zones ...
         124954 quadrilateral cells,  zone id: 6
          62241 mixed cells,  zone id: 7
      353767 faces,    19 face zones ...
             79 mixed wall faces,  zone id: 24
             36 mixed interior faces,  zone id: 26
             80 mixed wall faces,  zone id: 21
             26 mixed interior faces,  zone id: 23
           2722 mixed interior faces,  zone id: 5
         246502 2D interior faces,  zone id: 1
          95915 2D interior faces,  zone id: 2
            966 2D interior faces,  zone id: 3
             83 2D mass-flow-inlet faces,  zone id: 8
             50 2D pressure-outlet faces,  zone id: 9
           2215 2D axis faces,  zone id: 10
            852 2D wall faces,  zone id: 11
           1488 2D interface faces,  zone id: 12
            100 2D interface faces,  zone id: 13
             92 2D interface faces,  zone id: 14
           1278 2D wall faces,  zone id: 15
           1235 2D interface faces,  zone id: 16
             24 2D interface faces,  zone id: 17
             24 2D interface faces,  zone id: 18
      163631 nodes,     1 node zone  ...
  Done.


Checking the existence of compiled "libudf" UDF library for current platform.
If needed will attempt auto-compilation...

 	 Make sure that UDF source files are in the directory 
 	 that contains your case and data files. If you have 
 	 an existing libudf directory, please remove this 
 	 directory to ensure that latest files are used. 
  

Will now auto-compile UDF library "libudf".
Copy "D:\Workshop\Workbench\DPM\dpm-v1-1_files\dp0\FLU-4\Fluent\dpm-test-udf\PE_Arrhenius_WAX_Evapor_Ent.c" to "libudf\\src"

Copy "D:\Workshop\Workbench\DPM\dpm-v1-1_files\dp0\FLU-4\Fluent\dpm-test-udf\c32h66_dpm.c" to "libudf\\src"

Copy "D:\Workshop\Workbench\DPM\dpm-v1-1_files\dp0\FLU-4\Fluent\dpm-test-udf\enthalpy.c" to "libudf\\src"

Copy "D:\Workshop\Workbench\DPM\dpm-v1-1_files\dp0\FLU-4\Fluent\dpm-test-udf\fuel_surface.c" to "libudf\\src"

Copy "D:\Workshop\Workbench\DPM\dpm-v1-1_files\dp0\FLU-4\Fluent\dpm-test-udf\kinetics.c" to "libudf\\src"

Copy "D:\Workshop\Workbench\DPM\dpm-v1-1_files\dp0\FLU-4\Fluent\dpm-test-udf\mass_flux_calculator.c" to "libudf\\src"

Copy "D:\Workshop\Workbench\DPM\dpm-v1-1_files\dp0\FLU-4\Fluent\dpm-test-udf\regression.c" to "libudf\\src"

Copy "D:\Workshop\Workbench\DPM\dpm-v1-1_files\dp0\FLU-4\Fluent\dpm-test-udf\sources.c" to "libudf\\src"

Copy "D:\Workshop\Workbench\DPM\dpm-v1-1_files\dp0\FLU-4\Fluent\dpm-test-udf\c32h66_dpm.h" to "libudf\\src"

Copy "D:\Workshop\Workbench\DPM\dpm-v1-1_files\dp0\FLU-4\Fluent\dpm-test-udf\enthalpy.h" to "libudf\\src"

Copy "D:\Workshop\Workbench\DPM\dpm-v1-1_files\dp0\FLU-4\Fluent\dpm-test-udf\fuel_surface.h" to "libudf\\src"

Copy "D:\Workshop\Workbench\DPM\dpm-v1-1_files\dp0\FLU-4\Fluent\dpm-test-udf\kinetics.h" to "libudf\\src"

Copy "D:\Workshop\Workbench\DPM\dpm-v1-1_files\dp0\FLU-4\Fluent\dpm-test-udf\mass_flux_calculator.h" to "libudf\\src"

Copy "D:\Workshop\Workbench\DPM\dpm-v1-1_files\dp0\FLU-4\Fluent\dpm-test-udf\regression.h" to "libudf\\src"

Copy "D:\Workshop\Workbench\DPM\dpm-v1-1_files\dp0\FLU-4\Fluent\dpm-test-udf\sources.h" to "libudf\\src"

Files udf_names.c and user_nt.udf in 2ddp_host are up-to-date.

Copyright 1987-2025 ANSYS, Inc. All Rights Reserved.
Compiler and linker: Microsoft Visual C++
Files udf_names.c and user_nt.udf in 2ddp_node are up-to-date.

Copyright 1987-2025 ANSYS, Inc. All Rights Reserved.
Compiler and linker: Microsoft Visual C++

Done.

LLG-WS: Opening library "D:\\Workshop\\Workbench\\DPM\\dpm-v1-1_files\\dp0\\FLU-4\\Fluent\\dpm-test-udf\\libudf"...
Done.

UDM Offset for Current Loaded Library = 0

=====================================================

LLG-WS: Opening library "D:\\Workshop\\Workbench\\DPM\\dpm-v1-1_files\\dp0\\FLU-4\\Fluent\\dpm-test-udf\\libudf"...
	rename_udm
	Grid_Motion
	init_paraffin_from_surface
	paraffin_pyrolysis_law
	paraffin_pyrolysis_source
	dpm_switch
	filter_and_remove
	limit_to_e_minus_four
	fuel_wall_temperature
	Enable_Ent_Source
	Disable_Ent_Source
	Fit_Mass_Flow_Function_Fast
	Fit_Mass_Flow_Function
	Print_Mass_Flow_Function
	Total_Mass_Source
	X_Mom_Source
	Y_Mom_Source
	Z_Mom_Source
	C2H4_Mass_Source
	H2_Mass_Source
	Energy_Source_t
	Non_Source
	Vari_Source
	Constan_Sources
	Cal_Rho_Gas
	set_r_to

UDF Autorun:
rename_udm

UDM Offset for Current Loaded Library = 0

=====================================================

Done.

UDM Offset for Current Loaded Library = 0

=====================================================

UDM Offset for Current Loaded Library = 0

=====================================================

UDM Offset for Current Loaded Library = 0

=====================================================

UDM Offset for Current Loaded Library = 0

=====================================================

UDM Offset for Current Loaded Library = 0

=====================================================

UDM Offset for Current Loaded Library = 0

=====================================================

UDM Offset for Current Loaded Library = 0

=====================================================

UDM Offset for Current Loaded Library = 0

=====================================================

UDM Offset for Current Loaded Library = 0

=====================================================

UDM Offset for Current Loaded Library = 0

=====================================================

UDM Offset for Current Loaded Library = 0

=====================================================

UDM Offset for Current Loaded Library = 0

=====================================================

UDM Offset for Current Loaded Library = 0

=====================================================

UDM Offset for Current Loaded Library = 0

=====================================================

UDM Offset for Current Loaded Library = 0

=====================================================

UDM Offset for Current Loaded Library = 0

=====================================================

UDM Offset for Current Loaded Library = 0

=====================================================

Building...
     mesh
	distributing mesh
		parts..................,
		faces..................,
		nodes..................,
		cells..................,
        bandwidth reduction using Reverse Cuthill-McKee: 9901/99 = 100.01
  Reading NCI Node Coordinates ...
  Done.

     materials,
     interface,
     domains,
	mixture
     zones,
	fuel-wall
	wall
	axis
	outlet
	in-mesh-line
	interior-fluid-fuel
	interior-fluid-flow
	fuel-down
	fuel-left
	fuel-right
	wall-down
	wall-left
	wall-right
	fuel-down-non-overlapping
	wall-down-non-overlapping
	intf:01:fuel-down::wall-down
	fuel-left-non-overlapping
	wall-left-non-overlapping
	intf:02:fuel-left::wall-left
	fuel-right-non-overlapping
	wall-right-non-overlapping
	intf:03:fuel-right::wall-right
	inlet
	fluid-fuel
	fluid-flow
     mesh interfaces,
     parallel,
Done.
Since node values are off, changing the colormap type to "Banded".

Writing to LLG-WS:"F:\pyFluent\workspace\DMP-test-1\Case\base.cas.h5" in NODE0 mode and compression level 1 ...
Grouping cells for Laplace smoothing ...
      187195 cells,     2 zones ...
      353767 faces,    19 zones ...
      163631 nodes,     1 zone  ...
  Done.

  Writing NCI Node Coordinates ...
  Done.
Done.

Reading from LLG-WS:"D:\Workshop\Workbench\DPM\dpm-v1-1_files\dp0\FLU-4\Fluent\SYS-2-38-01000.dat.h5" in NODE0 mode ...


  Reading results.

  Reading UDM Node Data ...
  Done.
Parallel variables...
Polynomial not fitted yet.
	r = 2.8114 mm	r_pe = 5.0000 mm	r_wax = 2.8114 mm	r_v = 2.8096 mm	r_ent = 0.0018 mm
Polynomial not fitted yet.
	r = 2.8114 mm	r_pe = 5.0000 mm	r_wax = 2.8114 mm	r_v = 2.8096 mm	r_ent = 0.0018 mm
Polynomial not fitted yet.
	r = 2.8106 mm	r_pe = 5.0000 mm	r_wax = 2.8106 mm	r_v = 2.8088 mm	r_ent = 0.0018 mm
Polynomial not fitted yet.
	r = 2.8110 mm	r_pe = 5.0000 mm	r_wax = 2.8110 mm	r_v = 2.8092 mm	r_ent = 0.0018 mm
Polynomial not fitted yet.
	r = 2.8105 mm	r_pe = 5.0000 mm	r_wax = 2.8105 mm	r_v = 2.8087 mm	r_ent = 0.0018 mm
Polynomial not fitted yet.
	r = 2.8105 mm	r_pe = 5.0000 mm	r_wax = 2.8105 mm	r_v = 2.8086 mm	r_ent = 0.0018 mm
Polynomial not fitted yet.
	r = 2.8105 mm	r_pe = 5.0000 mm	r_wax = 2.8105 mm	r_v = 2.8086 mm	r_ent = 0.0018 mm
Polynomial not fitted yet.
	r = 2.8105 mm	r_pe = 5.0000 mm	r_wax = 2.8105 mm	r_v = 2.8087 mm	r_ent = 0.0018 mm
Polynomial not fitted yet.
	r = 2.8107 mm	r_pe = 5.0000 mm	r_wax = 2.8107 mm	r_v = 2.8089 mm	r_ent = 0.0018 mm
Polynomial not fitted yet.
	r = 2.8111 mm	r_pe = 5.0000 mm	r_wax = 2.8111 mm	r_v = 2.8093 mm	r_ent = 0.0018 mm
Polynomial not fitted yet.
	r = 2.8117 mm	r_pe = 5.0000 mm	r_wax = 2.8117 mm	r_v = 2.8099 mm	r_ent = 0.0018 mm
Polynomial not fitted yet.
	r = 2.8124 mm	r_pe = 5.0000 mm	r_wax = 2.8124 mm	r_v = 2.8105 mm	r_ent = 0.0018 mm
Polynomial not fitted yet.
	r = 2.8129 mm	r_pe = 5.0000 mm	r_wax = 2.8129 mm	r_v = 2.8110 mm	r_ent = 0.0018 mm
Polynomial not fitted yet.
	r = 2.8133 mm	r_pe = 5.0000 mm	r_wax = 2.8133 mm	r_v = 2.8115 mm	r_ent = 0.0018 mm
Polynomial not fitted yet.
	r = 2.8145 mm	r_pe = 5.0000 mm	r_wax = 2.8145 mm	r_v = 2.8126 mm	r_ent = 0.0018 mm
Polynomial not fitted yet.
	r = 2.8157 mm	r_pe = 5.0000 mm	r_wax = 2.8157 mm	r_v = 2.8139 mm	r_ent = 0.0018 mm
Polynomial not fitted yet.
	r = 2.8170 mm	r_pe = 5.0000 mm	r_wax = 2.8170 mm	r_v = 2.8152 mm	r_ent = 0.0018 mm
Polynomial not fitted yet.
	r = 2.8183 mm	r_pe = 5.0000 mm	r_wax = 2.8183 mm	r_v = 2.8165 mm	r_ent = 0.0018 mm
Polynomial not fitted yet.
	r = 2.8194 mm	r_pe = 5.0000 mm	r_wax = 2.8194 mm	r_v = 2.8176 mm	r_ent = 0.0018 mm
Polynomial not fitted yet.
	r = 2.8204 mm	r_pe = 5.0000 mm	r_wax = 2.8204 mm	r_v = 2.8186 mm	r_ent = 0.0018 mm
Polynomial not fitted yet.
	r = 2.8215 mm	r_pe = 5.0000 mm	r_wax = 2.8215 mm	r_v = 2.8197 mm	r_ent = 0.0018 mm
Polynomial not fitted yet.
	r = 2.8232 mm	r_pe = 5.0000 mm	r_wax = 2.8232 mm	r_v = 2.8214 mm	r_ent = 0.0018 mm
Polynomial not fitted yet.
	r = 2.8253 mm	r_pe = 5.0000 mm	r_wax = 2.8253 mm	r_v = 2.8234 mm	r_ent = 0.0018 mm
Polynomial not fitted yet.
	r = 2.8274 mm	r_pe = 5.0000 mm	r_wax = 2.8274 mm	r_v = 2.8256 mm	r_ent = 0.0018 mm
Polynomial not fitted yet.
	r = 2.8296 mm	r_pe = 5.0000 mm	r_wax = 2.8296 mm	r_v = 2.8277 mm	r_ent = 0.0018 mm
Polynomial not fitted yet.
	r = 2.8306 mm	r_pe = 5.0000 mm	r_wax = 2.8306 mm	r_v = 2.8288 mm	r_ent = 0.0018 mm
Polynomial not fitted yet.
	r = 2.8293 mm	r_pe = 5.0000 mm	r_wax = 2.8293 mm	r_v = 2.8275 mm	r_ent = 0.0018 mm
Polynomial not fitted yet.
	r = 2.8275 mm	r_pe = 5.0000 mm	r_wax = 2.8275 mm	r_v = 2.8257 mm	r_ent = 0.0018 mm
Polynomial not fitted yet.
	r = 2.8267 mm	r_pe = 5.0000 mm	r_wax = 2.8267 mm	r_v = 2.8249 mm	r_ent = 0.0018 mm
Polynomial not fitted yet.
	r = 2.8258 mm	r_pe = 5.0000 mm	r_wax = 2.8258 mm	r_v = 2.8240 mm	r_ent = 0.0018 mm
Polynomial not fitted yet.
	r = 2.8258 mm	r_pe = 5.0000 mm	r_wax = 2.8258 mm	r_v = 2.8240 mm	r_ent = 0.0018 mm
Polynomial not fitted yet.
	r = 2.8255 mm	r_pe = 5.0000 mm	r_wax = 2.8255 mm	r_v = 2.8237 mm	r_ent = 0.0018 mm
Polynomial not fitted yet.
	r = 2.8253 mm	r_pe = 5.0000 mm	r_wax = 2.8253 mm	r_v = 2.8234 mm	r_ent = 0.0018 mm
Polynomial not fitted yet.
	r = 2.8251 mm	r_pe = 5.0000 mm	r_wax = 2.8251 mm	r_v = 2.8233 mm	r_ent = 0.0018 mm
Polynomial not fitted yet.
	r = 2.8251 mm	r_pe = 5.0000 mm	r_wax = 2.8251 mm	r_v = 2.8233 mm	r_ent = 0.0018 mm
Polynomial not fitted yet.
	r = 2.8252 mm	r_pe = 5.0000 mm	r_wax = 2.8252 mm	r_v = 2.8233 mm	r_ent = 0.0018 mm
Polynomial not fitted yet.
	r = 2.8251 mm	r_pe = 5.0000 mm	r_wax = 2.8251 mm	r_v = 2.8232 mm	r_ent = 0.0018 mm
Polynomial not fitted yet.
	r = 2.8250 mm	r_pe = 5.0000 mm	r_wax = 2.8250 mm	r_v = 2.8232 mm	r_ent = 0.0018 mm
Polynomial not fitted yet.
	r = 2.8253 mm	r_pe = 5.0000 mm	r_wax = 2.8253 mm	r_v = 2.8235 mm	r_ent = 0.0018 mm
Polynomial not fitted yet.
	r = 2.8260 mm	r_pe = 5.0000 mm	r_wax = 2.8260 mm	r_v = 2.8242 mm	r_ent = 0.0018 mm
Polynomial not fitted yet.
	r = 2.8266 mm	r_pe = 5.0000 mm	r_wax = 2.8266 mm	r_v = 2.8248 mm	r_ent = 0.0018 mm
Polynomial not fitted yet.
	r = 2.8272 mm	r_pe = 5.0000 mm	r_wax = 2.8272 mm	r_v = 2.8254 mm	r_ent = 0.0018 mm
Polynomial not fitted yet.
	r = 2.8282 mm	r_pe = 5.0000 mm	r_wax = 2.8282 mm	r_v = 2.8264 mm	r_ent = 0.0018 mm
Polynomial not fitted yet.
	r = 2.8300 mm	r_pe = 5.0000 mm	r_wax = 2.8300 mm	r_v = 2.8281 mm	r_ent = 0.0018 mm
Polynomial not fitted yet.
	r = 2.8318 mm	r_pe = 5.0000 mm	r_wax = 2.8318 mm	r_v = 2.8300 mm	r_ent = 0.0018 mm
Polynomial not fitted yet.
	r = 2.8337 mm	r_pe = 5.0000 mm	r_wax = 2.8337 mm	r_v = 2.8319 mm	r_ent = 0.0018 mm
Polynomial not fitted yet.
	r = 2.8354 mm	r_pe = 5.0000 mm	r_wax = 2.8354 mm	r_v = 2.8336 mm	r_ent = 0.0018 mm
Polynomial not fitted yet.
	r = 2.8368 mm	r_pe = 5.0000 mm	r_wax = 2.8368 mm	r_v = 2.8350 mm	r_ent = 0.0018 mm
Polynomial not fitted yet.
	r = 2.8381 mm	r_pe = 5.0000 mm	r_wax = 2.8381 mm	r_v = 2.8363 mm	r_ent = 0.0018 mm
Polynomial not fitted yet.
	r = 2.8400 mm	r_pe = 5.0000 mm	r_wax = 2.8400 mm	r_v = 2.8381 mm	r_ent = 0.0018 mm
Polynomial not fitted yet.
	r = 2.8422 mm	r_pe = 5.0000 mm	r_wax = 2.8422 mm	r_v = 2.8404 mm	r_ent = 0.0018 mm
Polynomial not fitted yet.
	r = 2.8451 mm	r_pe = 5.0000 mm	r_wax = 2.8451 mm	r_v = 2.8433 mm	r_ent = 0.0018 mm
Polynomial not fitted yet.
	r = 2.8481 mm	r_pe = 5.0000 mm	r_wax = 2.8481 mm	r_v = 2.8463 mm	r_ent = 0.0018 mm
Polynomial not fitted yet.
	r = 2.8516 mm	r_pe = 5.0000 mm	r_wax = 2.8516 mm	r_v = 2.8498 mm	r_ent = 0.0018 mm
Polynomial not fitted yet.
	r = 2.8553 mm	r_pe = 5.0000 mm	r_wax = 2.8553 mm	r_v = 2.8535 mm	r_ent = 0.0018 mm
Polynomial not fitted yet.
	r = 2.8596 mm	r_pe = 5.0000 mm	r_wax = 2.8596 mm	r_v = 2.8578 mm	r_ent = 0.0018 mm
Polynomial not fitted yet.
	r = 2.8640 mm	r_pe = 5.0000 mm	r_wax = 2.8640 mm	r_v = 2.8622 mm	r_ent = 0.0018 mm
Polynomial not fitted yet.
	r = 2.8695 mm	r_pe = 5.0000 mm	r_wax = 2.8695 mm	r_v = 2.8677 mm	r_ent = 0.0018 mm
Polynomial not fitted yet.
	r = 2.8772 mm	r_pe = 5.0000 mm	r_wax = 2.8772 mm	r_v = 2.8754 mm	r_ent = 0.0018 mm
Polynomial not fitted yet.
	r = 2.8878 mm	r_pe = 5.0000 mm	r_wax = 2.8878 mm	r_v = 2.8860 mm	r_ent = 0.0018 mm
Polynomial not fitted yet.
	r = 2.9003 mm	r_pe = 5.0000 mm	r_wax = 2.9003 mm	r_v = 2.8985 mm	r_ent = 0.0018 mm
Polynomial not fitted yet.
	r = 2.9138 mm	r_pe = 5.0000 mm	r_wax = 2.9138 mm	r_v = 2.9121 mm	r_ent = 0.0017 mm
Polynomial not fitted yet.
	r = 2.9288 mm	r_pe = 5.0000 mm	r_wax = 2.9288 mm	r_v = 2.9271 mm	r_ent = 0.0017 mm
Polynomial not fitted yet.
	r = 2.9425 mm	r_pe = 5.0000 mm	r_wax = 2.9425 mm	r_v = 2.9408 mm	r_ent = 0.0017 mm
Polynomial not fitted yet.
	r = 2.9563 mm	r_pe = 5.0000 mm	r_wax = 2.9563 mm	r_v = 2.9545 mm	r_ent = 0.0017 mm
Polynomial not fitted yet.
	r = 2.9801 mm	r_pe = 5.0000 mm	r_wax = 2.9801 mm	r_v = 2.9784 mm	r_ent = 0.0017 mm
Polynomial not fitted yet.
	r = 3.0333 mm	r_pe = 5.0000 mm	r_wax = 3.0333 mm	r_v = 3.0317 mm	r_ent = 0.0016 mm
Polynomial not fitted yet.
	r = 3.0942 mm	r_pe = 5.0000 mm	r_wax = 3.0942 mm	r_v = 3.0926 mm	r_ent = 0.0016 mm
Polynomial not fitted yet.
	r = 3.1452 mm	r_pe = 5.0000 mm	r_wax = 3.1452 mm	r_v = 3.1437 mm	r_ent = 0.0016 mm
Polynomial not fitted yet.
	r = 3.1546 mm	r_pe = 5.0000 mm	r_wax = 3.1546 mm	r_v = 3.1531 mm	r_ent = 0.0015 mm
Polynomial not fitted yet.
	r = 3.1355 mm	r_pe = 5.0000 mm	r_wax = 3.1355 mm	r_v = 3.1339 mm	r_ent = 0.0016 mm
Polynomial not fitted yet.
	r = 3.1273 mm	r_pe = 5.0000 mm	r_wax = 3.1273 mm	r_v = 3.1257 mm	r_ent = 0.0016 mm
Polynomial not fitted yet.
	r = 3.0931 mm	r_pe = 5.0000 mm	r_wax = 3.0931 mm	r_v = 3.0915 mm	r_ent = 0.0016 mm
Polynomial not fitted yet.
	r = 3.1114 mm	r_pe = 5.0000 mm	r_wax = 3.1114 mm	r_v = 3.1098 mm	r_ent = 0.0016 mm
Polynomial not fitted yet.
	r = 5.1570 mm	r_pe = 5.0000 mm	r_wax = 5.1570 mm	r_v = 5.1563 mm	r_ent = 0.0007 mm
Polynomial not fitted yet.
	r = 5.1544 mm	r_pe = 5.0000 mm	r_wax = 5.1544 mm	r_v = 5.1536 mm	r_ent = 0.0007 mm
Polynomial not fitted yet.
	r = 5.1518 mm	r_pe = 5.0000 mm	r_wax = 5.1518 mm	r_v = 5.1510 mm	r_ent = 0.0007 mm
Polynomial not fitted yet.
	r = 5.1491 mm	r_pe = 5.0000 mm	r_wax = 5.1491 mm	r_v = 5.1484 mm	r_ent = 0.0007 mm
Polynomial not fitted yet.
	r = 5.1466 mm	r_pe = 5.0000 mm	r_wax = 5.1466 mm	r_v = 5.1458 mm	r_ent = 0.0007 mm
Polynomial not fitted yet.
	r = 5.1440 mm	r_pe = 5.0000 mm	r_wax = 5.1440 mm	r_v = 5.1433 mm	r_ent = 0.0007 mm
Polynomial not fitted yet.
	r = 5.1414 mm	r_pe = 5.0000 mm	r_wax = 5.1414 mm	r_v = 5.1407 mm	r_ent = 0.0007 mm
Polynomial not fitted yet.
	r = 5.1388 mm	r_pe = 5.0000 mm	r_wax = 5.1388 mm	r_v = 5.1381 mm	r_ent = 0.0007 mm
Polynomial not fitted yet.
	r = 5.1363 mm	r_pe = 5.0000 mm	r_wax = 5.1363 mm	r_v = 5.1355 mm	r_ent = 0.0007 mm
Polynomial not fitted yet.
	r = 5.1337 mm	r_pe = 5.0000 mm	r_wax = 5.1337 mm	r_v = 5.1329 mm	r_ent = 0.0007 mm
Polynomial not fitted yet.
	r = 5.1311 mm	r_pe = 5.0000 mm	r_wax = 5.1311 mm	r_v = 5.1304 mm	r_ent = 0.0007 mm
Polynomial not fitted yet.
	r = 5.1285 mm	r_pe = 5.0000 mm	r_wax = 5.1285 mm	r_v = 5.1278 mm	r_ent = 0.0007 mm
Polynomial not fitted yet.
	r = 5.1259 mm	r_pe = 5.0000 mm	r_wax = 5.1259 mm	r_v = 5.1252 mm	r_ent = 0.0007 mm
Polynomial not fitted yet.
	r = 5.1234 mm	r_pe = 5.0000 mm	r_wax = 5.1234 mm	r_v = 5.1226 mm	r_ent = 0.0007 mm
Polynomial not fitted yet.
	r = 5.1208 mm	r_pe = 5.0000 mm	r_wax = 5.1208 mm	r_v = 5.1200 mm	r_ent = 0.0007 mm
Polynomial not fitted yet.
	r = 5.1182 mm	r_pe = 5.0000 mm	r_wax = 5.1182 mm	r_v = 5.1175 mm	r_ent = 0.0007 mm
Polynomial not fitted yet.
	r = 5.1157 mm	r_pe = 5.0000 mm	r_wax = 5.1157 mm	r_v = 5.1149 mm	r_ent = 0.0007 mm
Polynomial not fitted yet.
	r = 5.1131 mm	r_pe = 5.0000 mm	r_wax = 5.1131 mm	r_v = 5.1123 mm	r_ent = 0.0007 mm
Polynomial not fitted yet.
	r = 5.1105 mm	r_pe = 5.0000 mm	r_wax = 5.1105 mm	r_v = 5.1098 mm	r_ent = 0.0008 mm
Polynomial not fitted yet.
	r = 5.1080 mm	r_pe = 5.0000 mm	r_wax = 5.1080 mm	r_v = 5.1073 mm	r_ent = 0.0008 mm
Polynomial not fitted yet.
	r = 5.1054 mm	r_pe = 5.0000 mm	r_wax = 5.1054 mm	r_v = 5.1047 mm	r_ent = 0.0008 mm
Polynomial not fitted yet.
	r = 5.1029 mm	r_pe = 5.0000 mm	r_wax = 5.1029 mm	r_v = 5.1021 mm	r_ent = 0.0008 mm
Polynomial not fitted yet.
	r = 5.1003 mm	r_pe = 5.0000 mm	r_wax = 5.1003 mm	r_v = 5.0996 mm	r_ent = 0.0008 mm
Polynomial not fitted yet.
	r = 5.0978 mm	r_pe = 5.0000 mm	r_wax = 5.0978 mm	r_v = 5.0970 mm	r_ent = 0.0008 mm
Polynomial not fitted yet.
	r = 5.0952 mm	r_pe = 5.0000 mm	r_wax = 5.0952 mm	r_v = 5.0945 mm	r_ent = 0.0008 mm
Polynomial not fitted yet.
	r = 5.0926 mm	r_pe = 5.0000 mm	r_wax = 5.0926 mm	r_v = 5.0919 mm	r_ent = 0.0008 mm
Polynomial not fitted yet.
	r = 5.0902 mm	r_pe = 5.0000 mm	r_wax = 5.0902 mm	r_v = 5.0894 mm	r_ent = 0.0008 mm
Polynomial not fitted yet.
	r = 5.0876 mm	r_pe = 5.0000 mm	r_wax = 5.0876 mm	r_v = 5.0868 mm	r_ent = 0.0008 mm
Polynomial not fitted yet.
	r = 5.0850 mm	r_pe = 5.0000 mm	r_wax = 5.0850 mm	r_v = 5.0843 mm	r_ent = 0.0008 mm
Polynomial not fitted yet.
	r = 5.0824 mm	r_pe = 5.0000 mm	r_wax = 5.0824 mm	r_v = 5.0817 mm	r_ent = 0.0008 mm
Polynomial not fitted yet.
	r = 5.0799 mm	r_pe = 5.0000 mm	r_wax = 5.0799 mm	r_v = 5.0791 mm	r_ent = 0.0008 mm
Polynomial not fitted yet.
	r = 5.0773 mm	r_pe = 5.0000 mm	r_wax = 5.0773 mm	r_v = 5.0766 mm	r_ent = 0.0008 mm
Polynomial not fitted yet.
	r = 5.0748 mm	r_pe = 5.0000 mm	r_wax = 5.0748 mm	r_v = 5.0740 mm	r_ent = 0.0008 mm
Polynomial not fitted yet.
	r = 5.0723 mm	r_pe = 5.0000 mm	r_wax = 5.0723 mm	r_v = 5.0715 mm	r_ent = 0.0008 mm
Polynomial not fitted yet.
	r = 5.0698 mm	r_pe = 5.0000 mm	r_wax = 5.0698 mm	r_v = 5.0690 mm	r_ent = 0.0008 mm
Polynomial not fitted yet.
	r = 5.0672 mm	r_pe = 5.0000 mm	r_wax = 5.0672 mm	r_v = 5.0664 mm	r_ent = 0.0008 mm
Polynomial not fitted yet.
	r = 5.0647 mm	r_pe = 5.0000 mm	r_wax = 5.0647 mm	r_v = 5.0639 mm	r_ent = 0.0008 mm
Polynomial not fitted yet.
	r = 5.0622 mm	r_pe = 5.0000 mm	r_wax = 5.0622 mm	r_v = 5.0614 mm	r_ent = 0.0008 mm
Polynomial not fitted yet.
	r = 5.0596 mm	r_pe = 5.0000 mm	r_wax = 5.0596 mm	r_v = 5.0588 mm	r_ent = 0.0008 mm
Polynomial not fitted yet.
	r = 5.0570 mm	r_pe = 5.0000 mm	r_wax = 5.0570 mm	r_v = 5.0563 mm	r_ent = 0.0008 mm
Polynomial not fitted yet.
	r = 5.0545 mm	r_pe = 5.0000 mm	r_wax = 5.0545 mm	r_v = 5.0537 mm	r_ent = 0.0008 mm
Polynomial not fitted yet.
	r = 5.0519 mm	r_pe = 5.0000 mm	r_wax = 5.0519 mm	r_v = 5.0512 mm	r_ent = 0.0008 mm
Polynomial not fitted yet.
	r = 5.0494 mm	r_pe = 5.0000 mm	r_wax = 5.0494 mm	r_v = 5.0486 mm	r_ent = 0.0008 mm
Polynomial not fitted yet.
	r = 5.0468 mm	r_pe = 5.0000 mm	r_wax = 5.0468 mm	r_v = 5.0461 mm	r_ent = 0.0008 mm
Polynomial not fitted yet.
	r = 5.0443 mm	r_pe = 5.0000 mm	r_wax = 5.0443 mm	r_v = 5.0435 mm	r_ent = 0.0008 mm
Polynomial not fitted yet.
	r = 5.0417 mm	r_pe = 5.0000 mm	r_wax = 5.0417 mm	r_v = 5.0409 mm	r_ent = 0.0008 mm
Polynomial not fitted yet.
	r = 5.0392 mm	r_pe = 5.0000 mm	r_wax = 5.0392 mm	r_v = 5.0384 mm	r_ent = 0.0008 mm
Polynomial not fitted yet.
	r = 5.0366 mm	r_pe = 5.0000 mm	r_wax = 5.0366 mm	r_v = 5.0359 mm	r_ent = 0.0008 mm
Polynomial not fitted yet.
	r = 5.0341 mm	r_pe = 5.0000 mm	r_wax = 5.0341 mm	r_v = 5.0333 mm	r_ent = 0.0008 mm
Polynomial not fitted yet.
	r = 5.0316 mm	r_pe = 5.0000 mm	r_wax = 5.0316 mm	r_v = 5.0308 mm	r_ent = 0.0008 mm
Polynomial not fitted yet.
	r = 5.0291 mm	r_pe = 5.0000 mm	r_wax = 5.0291 mm	r_v = 5.0283 mm	r_ent = 0.0008 mm
Polynomial not fitted yet.
	r = 5.0265 mm	r_pe = 5.0000 mm	r_wax = 5.0265 mm	r_v = 5.0258 mm	r_ent = 0.0008 mm
Polynomial not fitted yet.
	r = 5.0240 mm	r_pe = 5.0000 mm	r_wax = 5.0240 mm	r_v = 5.0232 mm	r_ent = 0.0008 mm
Polynomial not fitted yet.
	r = 5.0215 mm	r_pe = 5.0000 mm	r_wax = 5.0215 mm	r_v = 5.0207 mm	r_ent = 0.0008 mm
Polynomial not fitted yet.
	r = 5.0190 mm	r_pe = 5.0000 mm	r_wax = 5.0190 mm	r_v = 5.0182 mm	r_ent = 0.0008 mm
Polynomial not fitted yet.
	r = 5.0165 mm	r_pe = 5.0000 mm	r_wax = 5.0165 mm	r_v = 5.0157 mm	r_ent = 0.0008 mm
Polynomial not fitted yet.
	r = 5.0139 mm	r_pe = 5.0000 mm	r_wax = 5.0139 mm	r_v = 5.0132 mm	r_ent = 0.0008 mm
Polynomial not fitted yet.
	r = 5.0114 mm	r_pe = 5.0000 mm	r_wax = 5.0114 mm	r_v = 5.0106 mm	r_ent = 0.0008 mm
Polynomial not fitted yet.
	r = 5.0089 mm	r_pe = 5.0000 mm	r_wax = 5.0089 mm	r_v = 5.0081 mm	r_ent = 0.0008 mm
Polynomial not fitted yet.
	r = 5.0063 mm	r_pe = 5.0000 mm	r_wax = 5.0063 mm	r_v = 5.0055 mm	r_ent = 0.0008 mm
Polynomial not fitted yet.
	r = 5.0038 mm	r_pe = 5.0000 mm	r_wax = 5.0038 mm	r_v = 5.0030 mm	r_ent = 0.0008 mm
Polynomial not fitted yet.
	r = 5.0013 mm	r_pe = 5.0000 mm	r_wax = 5.0013 mm	r_v = 5.0005 mm	r_ent = 0.0008 mm
Polynomial not fitted yet.
	r = 4.9988 mm	r_pe = 5.0000 mm	r_wax = 4.9988 mm	r_v = 4.9980 mm	r_ent = 0.0008 mm
Polynomial not fitted yet.
	r = 4.9963 mm	r_pe = 5.0000 mm	r_wax = 4.9963 mm	r_v = 4.9955 mm	r_ent = 0.0008 mm
Polynomial not fitted yet.
	r = 4.9938 mm	r_pe = 5.0000 mm	r_wax = 4.9938 mm	r_v = 4.9931 mm	r_ent = 0.0008 mm
Polynomial not fitted yet.
	r = 4.9913 mm	r_pe = 5.0000 mm	r_wax = 4.9913 mm	r_v = 4.9906 mm	r_ent = 0.0008 mm
Polynomial not fitted yet.
	r = 4.9889 mm	r_pe = 5.0000 mm	r_wax = 4.9889 mm	r_v = 4.9881 mm	r_ent = 0.0008 mm
Polynomial not fitted yet.
	r = 4.9864 mm	r_pe = 5.0000 mm	r_wax = 4.9864 mm	r_v = 4.9856 mm	r_ent = 0.0008 mm
Polynomial not fitted yet.
	r = 4.9839 mm	r_pe = 5.0000 mm	r_wax = 4.9839 mm	r_v = 4.9832 mm	r_ent = 0.0008 mm
Polynomial not fitted yet.
	r = 4.9815 mm	r_pe = 5.0000 mm	r_wax = 4.9815 mm	r_v = 4.9807 mm	r_ent = 0.0008 mm
Polynomial not fitted yet.
	r = 4.9790 mm	r_pe = 5.0000 mm	r_wax = 4.9790 mm	r_v = 4.9782 mm	r_ent = 0.0008 mm
Polynomial not fitted yet.
	r = 4.9765 mm	r_pe = 5.0000 mm	r_wax = 4.9765 mm	r_v = 4.9758 mm	r_ent = 0.0008 mm
Polynomial not fitted yet.
	r = 4.9741 mm	r_pe = 5.0000 mm	r_wax = 4.9741 mm	r_v = 4.9733 mm	r_ent = 0.0008 mm
Polynomial not fitted yet.
	r = 4.9717 mm	r_pe = 5.0000 mm	r_wax = 4.9717 mm	r_v = 4.9709 mm	r_ent = 0.0008 mm
Polynomial not fitted yet.
	r = 4.9693 mm	r_pe = 5.0000 mm	r_wax = 4.9693 mm	r_v = 4.9685 mm	r_ent = 0.0008 mm
Polynomial not fitted yet.
	r = 4.9669 mm	r_pe = 5.0000 mm	r_wax = 4.9669 mm	r_v = 4.9661 mm	r_ent = 0.0008 mm
Polynomial not fitted yet.
	r = 4.9645 mm	r_pe = 5.0000 mm	r_wax = 4.9645 mm	r_v = 4.9637 mm	r_ent = 0.0008 mm
Polynomial not fitted yet.
	r = 4.9621 mm	r_pe = 5.0000 mm	r_wax = 4.9621 mm	r_v = 4.9613 mm	r_ent = 0.0008 mm
Polynomial not fitted yet.
	r = 4.9598 mm	r_pe = 5.0000 mm	r_wax = 4.9598 mm	r_v = 4.9590 mm	r_ent = 0.0008 mm
Polynomial not fitted yet.
	r = 4.9575 mm	r_pe = 5.0000 mm	r_wax = 4.9575 mm	r_v = 4.9567 mm	r_ent = 0.0008 mm
Polynomial not fitted yet.
	r = 4.9553 mm	r_pe = 5.0000 mm	r_wax = 4.9553 mm	r_v = 4.9545 mm	r_ent = 0.0008 mm
Polynomial not fitted yet.
	r = 4.9532 mm	r_pe = 5.0000 mm	r_wax = 4.9532 mm	r_v = 4.9524 mm	r_ent = 0.0008 mm
Polynomial not fitted yet.
	r = 4.9510 mm	r_pe = 5.0000 mm	r_wax = 4.9510 mm	r_v = 4.9503 mm	r_ent = 0.0008 mm
Polynomial not fitted yet.
	r = 4.9490 mm	r_pe = 5.0000 mm	r_wax = 4.9490 mm	r_v = 4.9483 mm	r_ent = 0.0008 mm
Polynomial not fitted yet.
	r = 4.9462 mm	r_pe = 5.0000 mm	r_wax = 4.9462 mm	r_v = 4.9454 mm	r_ent = 0.0008 mm
Polynomial not fitted yet.
	r = 4.9507 mm	r_pe = 5.0000 mm	r_wax = 4.9507 mm	r_v = 4.9499 mm	r_ent = 0.0008 mm
Polynomial not fitted yet.
	r = 4.9615 mm	r_pe = 5.0000 mm	r_wax = 4.9615 mm	r_v = 4.9607 mm	r_ent = 0.0008 mm
Polynomial not fitted yet.
	r = 3.4132 mm	r_pe = 5.0000 mm	r_wax = 3.4132 mm	r_v = 3.4118 mm	r_ent = 0.0014 mm
Polynomial not fitted yet.
	r = 3.4265 mm	r_pe = 5.0000 mm	r_wax = 3.4265 mm	r_v = 3.4252 mm	r_ent = 0.0014 mm
Polynomial not fitted yet.
	r = 3.4198 mm	r_pe = 5.0000 mm	r_wax = 3.4198 mm	r_v = 3.4184 mm	r_ent = 0.0014 mm
Polynomial not fitted yet.
	r = 3.4331 mm	r_pe = 5.0000 mm	r_wax = 3.4331 mm	r_v = 3.4317 mm	r_ent = 0.0014 mm
Polynomial not fitted yet.
	r = 3.4395 mm	r_pe = 5.0000 mm	r_wax = 3.4395 mm	r_v = 3.4382 mm	r_ent = 0.0014 mm
Polynomial not fitted yet.
	r = 3.4462 mm	r_pe = 5.0000 mm	r_wax = 3.4462 mm	r_v = 3.4448 mm	r_ent = 0.0014 mm
Polynomial not fitted yet.
	r = 3.4525 mm	r_pe = 5.0000 mm	r_wax = 3.4525 mm	r_v = 3.4511 mm	r_ent = 0.0014 mm
Polynomial not fitted yet.
	r = 3.4591 mm	r_pe = 5.0000 mm	r_wax = 3.4591 mm	r_v = 3.4578 mm	r_ent = 0.0013 mm
Polynomial not fitted yet.
	r = 3.4654 mm	r_pe = 5.0000 mm	r_wax = 3.4654 mm	r_v = 3.4641 mm	r_ent = 0.0013 mm
Polynomial not fitted yet.
	r = 3.4721 mm	r_pe = 5.0000 mm	r_wax = 3.4721 mm	r_v = 3.4708 mm	r_ent = 0.0013 mm
Polynomial not fitted yet.
	r = 3.4785 mm	r_pe = 5.0000 mm	r_wax = 3.4785 mm	r_v = 3.4771 mm	r_ent = 0.0013 mm
Polynomial not fitted yet.
	r = 3.4850 mm	r_pe = 5.0000 mm	r_wax = 3.4850 mm	r_v = 3.4837 mm	r_ent = 0.0013 mm
Polynomial not fitted yet.
	r = 3.4913 mm	r_pe = 5.0000 mm	r_wax = 3.4913 mm	r_v = 3.4900 mm	r_ent = 0.0013 mm
Polynomial not fitted yet.
	r = 3.4977 mm	r_pe = 5.0000 mm	r_wax = 3.4977 mm	r_v = 3.4964 mm	r_ent = 0.0013 mm
Polynomial not fitted yet.
	r = 3.5040 mm	r_pe = 5.0000 mm	r_wax = 3.5040 mm	r_v = 3.5026 mm	r_ent = 0.0013 mm
Polynomial not fitted yet.
	r = 3.5103 mm	r_pe = 5.0000 mm	r_wax = 3.5103 mm	r_v = 3.5090 mm	r_ent = 0.0013 mm
Polynomial not fitted yet.
	r = 3.5166 mm	r_pe = 5.0000 mm	r_wax = 3.5166 mm	r_v = 3.5153 mm	r_ent = 0.0013 mm
Polynomial not fitted yet.
	r = 3.5234 mm	r_pe = 5.0000 mm	r_wax = 3.5234 mm	r_v = 3.5221 mm	r_ent = 0.0013 mm
Polynomial not fitted yet.
	r = 3.5298 mm	r_pe = 5.0000 mm	r_wax = 3.5298 mm	r_v = 3.5284 mm	r_ent = 0.0013 mm
Polynomial not fitted yet.
	r = 3.5365 mm	r_pe = 5.0000 mm	r_wax = 3.5365 mm	r_v = 3.5352 mm	r_ent = 0.0013 mm
Polynomial not fitted yet.
	r = 3.5430 mm	r_pe = 5.0000 mm	r_wax = 3.5430 mm	r_v = 3.5417 mm	r_ent = 0.0013 mm
Polynomial not fitted yet.
	r = 3.5498 mm	r_pe = 5.0000 mm	r_wax = 3.5498 mm	r_v = 3.5485 mm	r_ent = 0.0013 mm
Polynomial not fitted yet.
	r = 3.5563 mm	r_pe = 5.0000 mm	r_wax = 3.5563 mm	r_v = 3.5550 mm	r_ent = 0.0013 mm
Polynomial not fitted yet.
	r = 3.5628 mm	r_pe = 5.0000 mm	r_wax = 3.5628 mm	r_v = 3.5616 mm	r_ent = 0.0013 mm
Polynomial not fitted yet.
	r = 3.5693 mm	r_pe = 5.0000 mm	r_wax = 3.5693 mm	r_v = 3.5680 mm	r_ent = 0.0013 mm
Polynomial not fitted yet.
	r = 3.5759 mm	r_pe = 5.0000 mm	r_wax = 3.5759 mm	r_v = 3.5746 mm	r_ent = 0.0013 mm
Polynomial not fitted yet.
	r = 3.5825 mm	r_pe = 5.0000 mm	r_wax = 3.5825 mm	r_v = 3.5812 mm	r_ent = 0.0013 mm
Polynomial not fitted yet.
	r = 3.5892 mm	r_pe = 5.0000 mm	r_wax = 3.5892 mm	r_v = 3.5879 mm	r_ent = 0.0013 mm
Polynomial not fitted yet.
	r = 3.5957 mm	r_pe = 5.0000 mm	r_wax = 3.5957 mm	r_v = 3.5945 mm	r_ent = 0.0013 mm
Polynomial not fitted yet.
	r = 3.6025 mm	r_pe = 5.0000 mm	r_wax = 3.6025 mm	r_v = 3.6012 mm	r_ent = 0.0013 mm
Polynomial not fitted yet.
	r = 3.6091 mm	r_pe = 5.0000 mm	r_wax = 3.6091 mm	r_v = 3.6078 mm	r_ent = 0.0013 mm
Polynomial not fitted yet.
	r = 3.6158 mm	r_pe = 5.0000 mm	r_wax = 3.6158 mm	r_v = 3.6145 mm	r_ent = 0.0013 mm
Polynomial not fitted yet.
	r = 3.6224 mm	r_pe = 5.0000 mm	r_wax = 3.6224 mm	r_v = 3.6211 mm	r_ent = 0.0013 mm
Polynomial not fitted yet.
	r = 3.6290 mm	r_pe = 5.0000 mm	r_wax = 3.6290 mm	r_v = 3.6278 mm	r_ent = 0.0013 mm
Polynomial not fitted yet.
	r = 3.6356 mm	r_pe = 5.0000 mm	r_wax = 3.6356 mm	r_v = 3.6343 mm	r_ent = 0.0013 mm
Polynomial not fitted yet.
	r = 3.6422 mm	r_pe = 5.0000 mm	r_wax = 3.6422 mm	r_v = 3.6409 mm	r_ent = 0.0012 mm
Polynomial not fitted yet.
	r = 3.6488 mm	r_pe = 5.0000 mm	r_wax = 3.6488 mm	r_v = 3.6475 mm	r_ent = 0.0012 mm
Polynomial not fitted yet.
	r = 3.6554 mm	r_pe = 5.0000 mm	r_wax = 3.6554 mm	r_v = 3.6542 mm	r_ent = 0.0012 mm
Polynomial not fitted yet.
	r = 3.6621 mm	r_pe = 5.0000 mm	r_wax = 3.6621 mm	r_v = 3.6609 mm	r_ent = 0.0012 mm
Polynomial not fitted yet.
	r = 3.6690 mm	r_pe = 5.0000 mm	r_wax = 3.6690 mm	r_v = 3.6677 mm	r_ent = 0.0012 mm
Polynomial not fitted yet.
	r = 3.6758 mm	r_pe = 5.0000 mm	r_wax = 3.6758 mm	r_v = 3.6746 mm	r_ent = 0.0012 mm
Polynomial not fitted yet.
	r = 3.6828 mm	r_pe = 5.0000 mm	r_wax = 3.6828 mm	r_v = 3.6816 mm	r_ent = 0.0012 mm
Polynomial not fitted yet.
	r = 3.6896 mm	r_pe = 5.0000 mm	r_wax = 3.6896 mm	r_v = 3.6884 mm	r_ent = 0.0012 mm
Polynomial not fitted yet.
	r = 3.6966 mm	r_pe = 5.0000 mm	r_wax = 3.6966 mm	r_v = 3.6954 mm	r_ent = 0.0012 mm
Polynomial not fitted yet.
	r = 3.7035 mm	r_pe = 5.0000 mm	r_wax = 3.7035 mm	r_v = 3.7022 mm	r_ent = 0.0012 mm
Polynomial not fitted yet.
	r = 3.7067 mm	r_pe = 5.0000 mm	r_wax = 3.7067 mm	r_v = 3.7055 mm	r_ent = 0.0012 mm
Polynomial not fitted yet.
	r = 3.7089 mm	r_pe = 5.0000 mm	r_wax = 3.7089 mm	r_v = 3.7077 mm	r_ent = 0.0012 mm
Polynomial not fitted yet.
	r = 3.7106 mm	r_pe = 5.0000 mm	r_wax = 3.7106 mm	r_v = 3.7094 mm	r_ent = 0.0012 mm
Polynomial not fitted yet.
	r = 3.7128 mm	r_pe = 5.0000 mm	r_wax = 3.7128 mm	r_v = 3.7116 mm	r_ent = 0.0012 mm
Polynomial not fitted yet.
	r = 3.7145 mm	r_pe = 5.0000 mm	r_wax = 3.7145 mm	r_v = 3.7132 mm	r_ent = 0.0012 mm
Polynomial not fitted yet.
	r = 3.7166 mm	r_pe = 5.0000 mm	r_wax = 3.7166 mm	r_v = 3.7154 mm	r_ent = 0.0012 mm
Polynomial not fitted yet.
	r = 3.7182 mm	r_pe = 5.0000 mm	r_wax = 3.7182 mm	r_v = 3.7170 mm	r_ent = 0.0012 mm
Polynomial not fitted yet.
	r = 3.7204 mm	r_pe = 5.0000 mm	r_wax = 3.7204 mm	r_v = 3.7192 mm	r_ent = 0.0012 mm
Polynomial not fitted yet.
	r = 3.7221 mm	r_pe = 5.0000 mm	r_wax = 3.7221 mm	r_v = 3.7209 mm	r_ent = 0.0012 mm
Polynomial not fitted yet.
	r = 3.7242 mm	r_pe = 5.0000 mm	r_wax = 3.7242 mm	r_v = 3.7230 mm	r_ent = 0.0012 mm
Polynomial not fitted yet.
	r = 3.7261 mm	r_pe = 5.0000 mm	r_wax = 3.7261 mm	r_v = 3.7249 mm	r_ent = 0.0012 mm
Polynomial not fitted yet.
	r = 3.7281 mm	r_pe = 5.0000 mm	r_wax = 3.7281 mm	r_v = 3.7269 mm	r_ent = 0.0012 mm
Polynomial not fitted yet.
	r = 3.7298 mm	r_pe = 5.0000 mm	r_wax = 3.7298 mm	r_v = 3.7286 mm	r_ent = 0.0012 mm
Polynomial not fitted yet.
	r = 3.7319 mm	r_pe = 5.0000 mm	r_wax = 3.7319 mm	r_v = 3.7307 mm	r_ent = 0.0012 mm
Polynomial not fitted yet.
	r = 3.7336 mm	r_pe = 5.0000 mm	r_wax = 3.7336 mm	r_v = 3.7324 mm	r_ent = 0.0012 mm
Polynomial not fitted yet.
	r = 3.7358 mm	r_pe = 5.0000 mm	r_wax = 3.7358 mm	r_v = 3.7346 mm	r_ent = 0.0012 mm
Polynomial not fitted yet.
	r = 3.7387 mm	r_pe = 5.0000 mm	r_wax = 3.7387 mm	r_v = 3.7375 mm	r_ent = 0.0012 mm
Polynomial not fitted yet.
	r = 3.7433 mm	r_pe = 5.0000 mm	r_wax = 3.7433 mm	r_v = 3.7421 mm	r_ent = 0.0012 mm
Polynomial not fitted yet.
	r = 3.7472 mm	r_pe = 5.0000 mm	r_wax = 3.7472 mm	r_v = 3.7460 mm	r_ent = 0.0012 mm
Polynomial not fitted yet.
	r = 3.7518 mm	r_pe = 5.0000 mm	r_wax = 3.7518 mm	r_v = 3.7506 mm	r_ent = 0.0012 mm
Polynomial not fitted yet.
	r = 3.7555 mm	r_pe = 5.0000 mm	r_wax = 3.7555 mm	r_v = 3.7544 mm	r_ent = 0.0012 mm
Polynomial not fitted yet.
	r = 3.7599 mm	r_pe = 5.0000 mm	r_wax = 3.7599 mm	r_v = 3.7587 mm	r_ent = 0.0012 mm
Polynomial not fitted yet.
	r = 3.7638 mm	r_pe = 5.0000 mm	r_wax = 3.7638 mm	r_v = 3.7626 mm	r_ent = 0.0012 mm
Polynomial not fitted yet.
	r = 3.7682 mm	r_pe = 5.0000 mm	r_wax = 3.7682 mm	r_v = 3.7670 mm	r_ent = 0.0012 mm
Polynomial not fitted yet.
	r = 3.7719 mm	r_pe = 5.0000 mm	r_wax = 3.7719 mm	r_v = 3.7707 mm	r_ent = 0.0012 mm
Polynomial not fitted yet.
	r = 3.7763 mm	r_pe = 5.0000 mm	r_wax = 3.7763 mm	r_v = 3.7751 mm	r_ent = 0.0012 mm
Polynomial not fitted yet.
	r = 3.7801 mm	r_pe = 5.0000 mm	r_wax = 3.7801 mm	r_v = 3.7789 mm	r_ent = 0.0012 mm
Polynomial not fitted yet.
	r = 3.7844 mm	r_pe = 5.0000 mm	r_wax = 3.7844 mm	r_v = 3.7832 mm	r_ent = 0.0012 mm
Polynomial not fitted yet.
	r = 3.7878 mm	r_pe = 5.0000 mm	r_wax = 3.7878 mm	r_v = 3.7866 mm	r_ent = 0.0012 mm
Polynomial not fitted yet.
	r = 3.7914 mm	r_pe = 5.0000 mm	r_wax = 3.7914 mm	r_v = 3.7902 mm	r_ent = 0.0012 mm
Polynomial not fitted yet.
	r = 3.7948 mm	r_pe = 5.0000 mm	r_wax = 3.7948 mm	r_v = 3.7936 mm	r_ent = 0.0012 mm
Polynomial not fitted yet.
	r = 3.7982 mm	r_pe = 5.0000 mm	r_wax = 3.7982 mm	r_v = 3.7970 mm	r_ent = 0.0012 mm
Polynomial not fitted yet.
	r = 3.8015 mm	r_pe = 5.0000 mm	r_wax = 3.8015 mm	r_v = 3.8003 mm	r_ent = 0.0012 mm
Polynomial not fitted yet.
	r = 3.8052 mm	r_pe = 5.0000 mm	r_wax = 3.8052 mm	r_v = 3.8040 mm	r_ent = 0.0012 mm
Polynomial not fitted yet.
	r = 3.8084 mm	r_pe = 5.0000 mm	r_wax = 3.8084 mm	r_v = 3.8073 mm	r_ent = 0.0012 mm
Polynomial not fitted yet.
	r = 3.8121 mm	r_pe = 5.0000 mm	r_wax = 3.8121 mm	r_v = 3.8110 mm	r_ent = 0.0012 mm
Polynomial not fitted yet.
	r = 3.8154 mm	r_pe = 5.0000 mm	r_wax = 3.8154 mm	r_v = 3.8143 mm	r_ent = 0.0012 mm
Polynomial not fitted yet.
	r = 3.8191 mm	r_pe = 5.0000 mm	r_wax = 3.8191 mm	r_v = 3.8180 mm	r_ent = 0.0012 mm
Polynomial not fitted yet.
	r = 3.8224 mm	r_pe = 5.0000 mm	r_wax = 3.8224 mm	r_v = 3.8213 mm	r_ent = 0.0012 mm
Polynomial not fitted yet.
	r = 3.8257 mm	r_pe = 5.0000 mm	r_wax = 3.8257 mm	r_v = 3.8246 mm	r_ent = 0.0012 mm
Polynomial not fitted yet.
	r = 3.8291 mm	r_pe = 5.0000 mm	r_wax = 3.8291 mm	r_v = 3.8280 mm	r_ent = 0.0012 mm
Polynomial not fitted yet.
	r = 3.8325 mm	r_pe = 5.0000 mm	r_wax = 3.8325 mm	r_v = 3.8314 mm	r_ent = 0.0012 mm
Polynomial not fitted yet.
	r = 3.8358 mm	r_pe = 5.0000 mm	r_wax = 3.8358 mm	r_v = 3.8346 mm	r_ent = 0.0012 mm
Polynomial not fitted yet.
	r = 3.8395 mm	r_pe = 5.0000 mm	r_wax = 3.8395 mm	r_v = 3.8383 mm	r_ent = 0.0012 mm
Polynomial not fitted yet.
	r = 3.8425 mm	r_pe = 5.0000 mm	r_wax = 3.8425 mm	r_v = 3.8414 mm	r_ent = 0.0012 mm
Polynomial not fitted yet.
	r = 3.8464 mm	r_pe = 5.0000 mm	r_wax = 3.8464 mm	r_v = 3.8452 mm	r_ent = 0.0011 mm
Polynomial not fitted yet.
	r = 3.8495 mm	r_pe = 5.0000 mm	r_wax = 3.8495 mm	r_v = 3.8483 mm	r_ent = 0.0011 mm
Polynomial not fitted yet.
	r = 3.8532 mm	r_pe = 5.0000 mm	r_wax = 3.8532 mm	r_v = 3.8520 mm	r_ent = 0.0011 mm
Polynomial not fitted yet.
	r = 3.8564 mm	r_pe = 5.0000 mm	r_wax = 3.8564 mm	r_v = 3.8552 mm	r_ent = 0.0011 mm
Polynomial not fitted yet.
	r = 3.8601 mm	r_pe = 5.0000 mm	r_wax = 3.8601 mm	r_v = 3.8589 mm	r_ent = 0.0011 mm
Polynomial not fitted yet.
	r = 3.8632 mm	r_pe = 5.0000 mm	r_wax = 3.8632 mm	r_v = 3.8621 mm	r_ent = 0.0011 mm
Polynomial not fitted yet.
	r = 3.8670 mm	r_pe = 5.0000 mm	r_wax = 3.8670 mm	r_v = 3.8658 mm	r_ent = 0.0011 mm
Polynomial not fitted yet.
	r = 3.8701 mm	r_pe = 5.0000 mm	r_wax = 3.8701 mm	r_v = 3.8690 mm	r_ent = 0.0011 mm
Polynomial not fitted yet.
	r = 3.8739 mm	r_pe = 5.0000 mm	r_wax = 3.8739 mm	r_v = 3.8728 mm	r_ent = 0.0011 mm
Polynomial not fitted yet.
	r = 3.8770 mm	r_pe = 5.0000 mm	r_wax = 3.8770 mm	r_v = 3.8758 mm	r_ent = 0.0011 mm
Polynomial not fitted yet.
	r = 3.8809 mm	r_pe = 5.0000 mm	r_wax = 3.8809 mm	r_v = 3.8798 mm	r_ent = 0.0011 mm
Polynomial not fitted yet.
	r = 3.8838 mm	r_pe = 5.0000 mm	r_wax = 3.8838 mm	r_v = 3.8827 mm	r_ent = 0.0011 mm
Polynomial not fitted yet.
	r = 3.8878 mm	r_pe = 5.0000 mm	r_wax = 3.8878 mm	r_v = 3.8867 mm	r_ent = 0.0011 mm
Polynomial not fitted yet.
	r = 3.8908 mm	r_pe = 5.0000 mm	r_wax = 3.8908 mm	r_v = 3.8897 mm	r_ent = 0.0011 mm
Polynomial not fitted yet.
	r = 3.8946 mm	r_pe = 5.0000 mm	r_wax = 3.8946 mm	r_v = 3.8935 mm	r_ent = 0.0011 mm
Polynomial not fitted yet.
	r = 3.8980 mm	r_pe = 5.0000 mm	r_wax = 3.8980 mm	r_v = 3.8968 mm	r_ent = 0.0011 mm
Polynomial not fitted yet.
	r = 3.9015 mm	r_pe = 5.0000 mm	r_wax = 3.9015 mm	r_v = 3.9004 mm	r_ent = 0.0011 mm
Polynomial not fitted yet.
	r = 3.9048 mm	r_pe = 5.0000 mm	r_wax = 3.9048 mm	r_v = 3.9037 mm	r_ent = 0.0011 mm
Polynomial not fitted yet.
	r = 3.9084 mm	r_pe = 5.0000 mm	r_wax = 3.9084 mm	r_v = 3.9073 mm	r_ent = 0.0011 mm
Polynomial not fitted yet.
	r = 3.9119 mm	r_pe = 5.0000 mm	r_wax = 3.9119 mm	r_v = 3.9108 mm	r_ent = 0.0011 mm
Polynomial not fitted yet.
	r = 3.9155 mm	r_pe = 5.0000 mm	r_wax = 3.9155 mm	r_v = 3.9143 mm	r_ent = 0.0011 mm
Polynomial not fitted yet.
	r = 5.4493 mm	r_pe = 5.0000 mm	r_wax = 5.4493 mm	r_v = 5.4486 mm	r_ent = 0.0007 mm
Polynomial not fitted yet.
	r = 5.4393 mm	r_pe = 5.0000 mm	r_wax = 5.4393 mm	r_v = 5.4386 mm	r_ent = 0.0007 mm
Polynomial not fitted yet.
	r = 5.4375 mm	r_pe = 5.0000 mm	r_wax = 5.4375 mm	r_v = 5.4368 mm	r_ent = 0.0007 mm
Polynomial not fitted yet.
	r = 5.4269 mm	r_pe = 5.0000 mm	r_wax = 5.4269 mm	r_v = 5.4263 mm	r_ent = 0.0007 mm
Polynomial not fitted yet.
	r = 5.4267 mm	r_pe = 5.0000 mm	r_wax = 5.4267 mm	r_v = 5.4260 mm	r_ent = 0.0007 mm
Polynomial not fitted yet.
	r = 5.4161 mm	r_pe = 5.0000 mm	r_wax = 5.4161 mm	r_v = 5.4154 mm	r_ent = 0.0007 mm
Polynomial not fitted yet.
	r = 5.4147 mm	r_pe = 5.0000 mm	r_wax = 5.4147 mm	r_v = 5.4140 mm	r_ent = 0.0007 mm
Polynomial not fitted yet.
	r = 5.3771 mm	r_pe = 5.0000 mm	r_wax = 5.3771 mm	r_v = 5.3764 mm	r_ent = 0.0007 mm
Polynomial not fitted yet.
	r = 5.4008 mm	r_pe = 5.0000 mm	r_wax = 5.4008 mm	r_v = 5.4001 mm	r_ent = 0.0007 mm
Polynomial not fitted yet.
	r = 5.3960 mm	r_pe = 5.0000 mm	r_wax = 5.3960 mm	r_v = 5.3953 mm	r_ent = 0.0007 mm
Polynomial not fitted yet.
	r = 5.3897 mm	r_pe = 5.0000 mm	r_wax = 5.3897 mm	r_v = 5.3890 mm	r_ent = 0.0007 mm
Polynomial not fitted yet.
	r = 5.3851 mm	r_pe = 5.0000 mm	r_wax = 5.3851 mm	r_v = 5.3844 mm	r_ent = 0.0007 mm
Polynomial not fitted yet.
	r = 5.3785 mm	r_pe = 5.0000 mm	r_wax = 5.3785 mm	r_v = 5.3778 mm	r_ent = 0.0007 mm
Polynomial not fitted yet.
	r = 5.3743 mm	r_pe = 5.0000 mm	r_wax = 5.3743 mm	r_v = 5.3736 mm	r_ent = 0.0007 mm
Polynomial not fitted yet.
	r = 5.3677 mm	r_pe = 5.0000 mm	r_wax = 5.3677 mm	r_v = 5.3670 mm	r_ent = 0.0007 mm
Polynomial not fitted yet.
	r = 5.3635 mm	r_pe = 5.0000 mm	r_wax = 5.3635 mm	r_v = 5.3628 mm	r_ent = 0.0007 mm
Polynomial not fitted yet.
	r = 5.3570 mm	r_pe = 5.0000 mm	r_wax = 5.3570 mm	r_v = 5.3563 mm	r_ent = 0.0007 mm
Polynomial not fitted yet.
	r = 5.3526 mm	r_pe = 5.0000 mm	r_wax = 5.3526 mm	r_v = 5.3519 mm	r_ent = 0.0007 mm
Polynomial not fitted yet.
	r = 5.3463 mm	r_pe = 5.0000 mm	r_wax = 5.3463 mm	r_v = 5.3456 mm	r_ent = 0.0007 mm
Polynomial not fitted yet.
	r = 5.3417 mm	r_pe = 5.0000 mm	r_wax = 5.3417 mm	r_v = 5.3410 mm	r_ent = 0.0007 mm
Polynomial not fitted yet.
	r = 5.3355 mm	r_pe = 5.0000 mm	r_wax = 5.3355 mm	r_v = 5.3348 mm	r_ent = 0.0007 mm
Polynomial not fitted yet.
	r = 5.3308 mm	r_pe = 5.0000 mm	r_wax = 5.3308 mm	r_v = 5.3301 mm	r_ent = 0.0007 mm
Polynomial not fitted yet.
	r = 5.3247 mm	r_pe = 5.0000 mm	r_wax = 5.3247 mm	r_v = 5.3240 mm	r_ent = 0.0007 mm
Polynomial not fitted yet.
	r = 5.3199 mm	r_pe = 5.0000 mm	r_wax = 5.3199 mm	r_v = 5.3192 mm	r_ent = 0.0007 mm
Polynomial not fitted yet.
	r = 5.3140 mm	r_pe = 5.0000 mm	r_wax = 5.3140 mm	r_v = 5.3133 mm	r_ent = 0.0007 mm
Polynomial not fitted yet.
	r = 5.3091 mm	r_pe = 5.0000 mm	r_wax = 5.3091 mm	r_v = 5.3084 mm	r_ent = 0.0007 mm
Polynomial not fitted yet.
	r = 5.3031 mm	r_pe = 5.0000 mm	r_wax = 5.3031 mm	r_v = 5.3023 mm	r_ent = 0.0007 mm
Polynomial not fitted yet.
	r = 5.2985 mm	r_pe = 5.0000 mm	r_wax = 5.2985 mm	r_v = 5.2978 mm	r_ent = 0.0007 mm
Polynomial not fitted yet.
	r = 5.2924 mm	r_pe = 5.0000 mm	r_wax = 5.2924 mm	r_v = 5.2917 mm	r_ent = 0.0007 mm
Polynomial not fitted yet.
	r = 5.2879 mm	r_pe = 5.0000 mm	r_wax = 5.2879 mm	r_v = 5.2871 mm	r_ent = 0.0007 mm
Polynomial not fitted yet.
	r = 5.2818 mm	r_pe = 5.0000 mm	r_wax = 5.2818 mm	r_v = 5.2810 mm	r_ent = 0.0007 mm
Polynomial not fitted yet.
	r = 5.2773 mm	r_pe = 5.0000 mm	r_wax = 5.2773 mm	r_v = 5.2766 mm	r_ent = 0.0007 mm
Polynomial not fitted yet.
	r = 5.2713 mm	r_pe = 5.0000 mm	r_wax = 5.2713 mm	r_v = 5.2706 mm	r_ent = 0.0007 mm
Polynomial not fitted yet.
	r = 5.2669 mm	r_pe = 5.0000 mm	r_wax = 5.2669 mm	r_v = 5.2662 mm	r_ent = 0.0007 mm
Polynomial not fitted yet.
	r = 5.2607 mm	r_pe = 5.0000 mm	r_wax = 5.2607 mm	r_v = 5.2600 mm	r_ent = 0.0007 mm
Polynomial not fitted yet.
	r = 5.2564 mm	r_pe = 5.0000 mm	r_wax = 5.2564 mm	r_v = 5.2557 mm	r_ent = 0.0007 mm
Polynomial not fitted yet.
	r = 5.2505 mm	r_pe = 5.0000 mm	r_wax = 5.2505 mm	r_v = 5.2497 mm	r_ent = 0.0007 mm
Polynomial not fitted yet.
	r = 5.2460 mm	r_pe = 5.0000 mm	r_wax = 5.2460 mm	r_v = 5.2453 mm	r_ent = 0.0007 mm
Polynomial not fitted yet.
	r = 5.2397 mm	r_pe = 5.0000 mm	r_wax = 5.2397 mm	r_v = 5.2390 mm	r_ent = 0.0007 mm
Polynomial not fitted yet.
	r = 5.2357 mm	r_pe = 5.0000 mm	r_wax = 5.2357 mm	r_v = 5.2350 mm	r_ent = 0.0007 mm
Polynomial not fitted yet.
	r = 5.2295 mm	r_pe = 5.0000 mm	r_wax = 5.2295 mm	r_v = 5.2288 mm	r_ent = 0.0007 mm
Polynomial not fitted yet.
	r = 5.2253 mm	r_pe = 5.0000 mm	r_wax = 5.2253 mm	r_v = 5.2246 mm	r_ent = 0.0007 mm
Polynomial not fitted yet.
	r = 5.2193 mm	r_pe = 5.0000 mm	r_wax = 5.2193 mm	r_v = 5.2185 mm	r_ent = 0.0007 mm
Polynomial not fitted yet.
	r = 5.2148 mm	r_pe = 5.0000 mm	r_wax = 5.2148 mm	r_v = 5.2141 mm	r_ent = 0.0007 mm
Polynomial not fitted yet.
	r = 5.2089 mm	r_pe = 5.0000 mm	r_wax = 5.2089 mm	r_v = 5.2082 mm	r_ent = 0.0007 mm
Polynomial not fitted yet.
	r = 5.2044 mm	r_pe = 5.0000 mm	r_wax = 5.2044 mm	r_v = 5.2037 mm	r_ent = 0.0007 mm
Polynomial not fitted yet.
	r = 5.1987 mm	r_pe = 5.0000 mm	r_wax = 5.1987 mm	r_v = 5.1979 mm	r_ent = 0.0007 mm
Polynomial not fitted yet.
	r = 5.1941 mm	r_pe = 5.0000 mm	r_wax = 5.1941 mm	r_v = 5.1933 mm	r_ent = 0.0007 mm
Polynomial not fitted yet.
	r = 5.1883 mm	r_pe = 5.0000 mm	r_wax = 5.1883 mm	r_v = 5.1876 mm	r_ent = 0.0007 mm
Polynomial not fitted yet.
	r = 5.1843 mm	r_pe = 5.0000 mm	r_wax = 5.1843 mm	r_v = 5.1836 mm	r_ent = 0.0007 mm
Polynomial not fitted yet.
	r = 5.1761 mm	r_pe = 5.0000 mm	r_wax = 5.1761 mm	r_v = 5.1753 mm	r_ent = 0.0007 mm
Polynomial not fitted yet.
	r = 5.1524 mm	r_pe = 5.0000 mm	r_wax = 5.1524 mm	r_v = 5.1517 mm	r_ent = 0.0007 mm
Polynomial not fitted yet.
	r = 5.1527 mm	r_pe = 5.0000 mm	r_wax = 5.1527 mm	r_v = 5.1520 mm	r_ent = 0.0007 mm
Polynomial not fitted yet.
	r = 5.1474 mm	r_pe = 5.0000 mm	r_wax = 5.1474 mm	r_v = 5.1467 mm	r_ent = 0.0007 mm
Polynomial not fitted yet.
	r = 5.1420 mm	r_pe = 5.0000 mm	r_wax = 5.1420 mm	r_v = 5.1413 mm	r_ent = 0.0007 mm
Polynomial not fitted yet.
	r = 5.1377 mm	r_pe = 5.0000 mm	r_wax = 5.1377 mm	r_v = 5.1370 mm	r_ent = 0.0007 mm
Polynomial not fitted yet.
	r = 5.1319 mm	r_pe = 5.0000 mm	r_wax = 5.1319 mm	r_v = 5.1312 mm	r_ent = 0.0007 mm
Polynomial not fitted yet.
	r = 5.1276 mm	r_pe = 5.0000 mm	r_wax = 5.1276 mm	r_v = 5.1269 mm	r_ent = 0.0007 mm
Polynomial not fitted yet.
	r = 5.1220 mm	r_pe = 5.0000 mm	r_wax = 5.1220 mm	r_v = 5.1212 mm	r_ent = 0.0007 mm
Polynomial not fitted yet.
	r = 5.1177 mm	r_pe = 5.0000 mm	r_wax = 5.1177 mm	r_v = 5.1169 mm	r_ent = 0.0007 mm
Polynomial not fitted yet.
	r = 5.1119 mm	r_pe = 5.0000 mm	r_wax = 5.1119 mm	r_v = 5.1111 mm	r_ent = 0.0008 mm
Polynomial not fitted yet.
	r = 5.1077 mm	r_pe = 5.0000 mm	r_wax = 5.1077 mm	r_v = 5.1069 mm	r_ent = 0.0008 mm
Polynomial not fitted yet.
	r = 5.1019 mm	r_pe = 5.0000 mm	r_wax = 5.1019 mm	r_v = 5.1011 mm	r_ent = 0.0008 mm
Polynomial not fitted yet.
	r = 5.0976 mm	r_pe = 5.0000 mm	r_wax = 5.0976 mm	r_v = 5.0969 mm	r_ent = 0.0008 mm
Polynomial not fitted yet.
	r = 5.0919 mm	r_pe = 5.0000 mm	r_wax = 5.0919 mm	r_v = 5.0911 mm	r_ent = 0.0008 mm
Polynomial not fitted yet.
	r = 5.0876 mm	r_pe = 5.0000 mm	r_wax = 5.0876 mm	r_v = 5.0869 mm	r_ent = 0.0008 mm
Polynomial not fitted yet.
	r = 5.0819 mm	r_pe = 5.0000 mm	r_wax = 5.0819 mm	r_v = 5.0812 mm	r_ent = 0.0008 mm
Polynomial not fitted yet.
	r = 5.0777 mm	r_pe = 5.0000 mm	r_wax = 5.0777 mm	r_v = 5.0769 mm	r_ent = 0.0008 mm
Polynomial not fitted yet.
	r = 5.0720 mm	r_pe = 5.0000 mm	r_wax = 5.0720 mm	r_v = 5.0712 mm	r_ent = 0.0008 mm
Polynomial not fitted yet.
	r = 5.0678 mm	r_pe = 5.0000 mm	r_wax = 5.0678 mm	r_v = 5.0671 mm	r_ent = 0.0008 mm
Polynomial not fitted yet.
	r = 5.0621 mm	r_pe = 5.0000 mm	r_wax = 5.0621 mm	r_v = 5.0613 mm	r_ent = 0.0008 mm
Polynomial not fitted yet.
	r = 5.0581 mm	r_pe = 5.0000 mm	r_wax = 5.0581 mm	r_v = 5.0573 mm	r_ent = 0.0008 mm
Polynomial not fitted yet.
	r = 5.0523 mm	r_pe = 5.0000 mm	r_wax = 5.0523 mm	r_v = 5.0516 mm	r_ent = 0.0008 mm
Polynomial not fitted yet.
	r = 5.0482 mm	r_pe = 5.0000 mm	r_wax = 5.0482 mm	r_v = 5.0474 mm	r_ent = 0.0008 mm
Polynomial not fitted yet.
	r = 5.0424 mm	r_pe = 5.0000 mm	r_wax = 5.0424 mm	r_v = 5.0417 mm	r_ent = 0.0008 mm
Polynomial not fitted yet.
	r = 5.0385 mm	r_pe = 5.0000 mm	r_wax = 5.0385 mm	r_v = 5.0377 mm	r_ent = 0.0008 mm
Polynomial not fitted yet.
	r = 5.0328 mm	r_pe = 5.0000 mm	r_wax = 5.0328 mm	r_v = 5.0320 mm	r_ent = 0.0008 mm
Polynomial not fitted yet.
	r = 5.0287 mm	r_pe = 5.0000 mm	r_wax = 5.0287 mm	r_v = 5.0279 mm	r_ent = 0.0008 mm
Polynomial not fitted yet.
	r = 5.0232 mm	r_pe = 5.0000 mm	r_wax = 5.0232 mm	r_v = 5.0224 mm	r_ent = 0.0008 mm
Polynomial not fitted yet.
	r = 5.0190 mm	r_pe = 5.0000 mm	r_wax = 5.0190 mm	r_v = 5.0182 mm	r_ent = 0.0008 mm
Polynomial not fitted yet.
	r = 5.0135 mm	r_pe = 5.0000 mm	r_wax = 5.0135 mm	r_v = 5.0127 mm	r_ent = 0.0008 mm
Polynomial not fitted yet.
	r = 5.0093 mm	r_pe = 5.0000 mm	r_wax = 5.0093 mm	r_v = 5.0086 mm	r_ent = 0.0008 mm
Polynomial not fitted yet.
	r = 5.0038 mm	r_pe = 5.0000 mm	r_wax = 5.0038 mm	r_v = 5.0030 mm	r_ent = 0.0008 mm
Polynomial not fitted yet.
	r = 4.9993 mm	r_pe = 5.0000 mm	r_wax = 4.9993 mm	r_v = 4.9985 mm	r_ent = 0.0008 mm
Polynomial not fitted yet.
	r = 4.9946 mm	r_pe = 5.0000 mm	r_wax = 4.9946 mm	r_v = 4.9939 mm	r_ent = 0.0008 mm
Polynomial not fitted yet.
	r = 4.9892 mm	r_pe = 5.0000 mm	r_wax = 4.9892 mm	r_v = 4.9884 mm	r_ent = 0.0008 mm
Polynomial not fitted yet.
	r = 4.9851 mm	r_pe = 5.0000 mm	r_wax = 4.9851 mm	r_v = 4.9843 mm	r_ent = 0.0008 mm
Polynomial not fitted yet.
	r = 4.9796 mm	r_pe = 5.0000 mm	r_wax = 4.9796 mm	r_v = 4.9788 mm	r_ent = 0.0008 mm
Polynomial not fitted yet.
	r = 4.9756 mm	r_pe = 5.0000 mm	r_wax = 4.9756 mm	r_v = 4.9748 mm	r_ent = 0.0008 mm
Polynomial not fitted yet.
	r = 4.9702 mm	r_pe = 5.0000 mm	r_wax = 4.9702 mm	r_v = 4.9694 mm	r_ent = 0.0008 mm
Polynomial not fitted yet.
	r = 4.9662 mm	r_pe = 5.0000 mm	r_wax = 4.9662 mm	r_v = 4.9654 mm	r_ent = 0.0008 mm
Polynomial not fitted yet.
	r = 4.9607 mm	r_pe = 5.0000 mm	r_wax = 4.9607 mm	r_v = 4.9599 mm	r_ent = 0.0008 mm
Polynomial not fitted yet.
	r = 4.9567 mm	r_pe = 5.0000 mm	r_wax = 4.9567 mm	r_v = 4.9559 mm	r_ent = 0.0008 mm
Polynomial not fitted yet.
	r = 4.9514 mm	r_pe = 5.0000 mm	r_wax = 4.9514 mm	r_v = 4.9506 mm	r_ent = 0.0008 mm
Polynomial not fitted yet.
	r = 4.9473 mm	r_pe = 5.0000 mm	r_wax = 4.9473 mm	r_v = 4.9465 mm	r_ent = 0.0008 mm
Polynomial not fitted yet.
	r = 4.9419 mm	r_pe = 5.0000 mm	r_wax = 4.9419 mm	r_v = 4.9411 mm	r_ent = 0.0008 mm
Polynomial not fitted yet.
	r = 4.9379 mm	r_pe = 5.0000 mm	r_wax = 4.9379 mm	r_v = 4.9371 mm	r_ent = 0.0008 mm
Polynomial not fitted yet.
	r = 4.9325 mm	r_pe = 5.0000 mm	r_wax = 4.9325 mm	r_v = 4.9317 mm	r_ent = 0.0008 mm
Polynomial not fitted yet.
	r = 4.9286 mm	r_pe = 5.0000 mm	r_wax = 4.9286 mm	r_v = 4.9278 mm	r_ent = 0.0008 mm
Polynomial not fitted yet.
	r = 4.9232 mm	r_pe = 5.0000 mm	r_wax = 4.9232 mm	r_v = 4.9225 mm	r_ent = 0.0008 mm
Polynomial not fitted yet.
	r = 4.9193 mm	r_pe = 5.0000 mm	r_wax = 4.9193 mm	r_v = 4.9185 mm	r_ent = 0.0008 mm
Polynomial not fitted yet.
	r = 4.9141 mm	r_pe = 5.0000 mm	r_wax = 4.9141 mm	r_v = 4.9133 mm	r_ent = 0.0008 mm
Polynomial not fitted yet.
	r = 4.9101 mm	r_pe = 5.0000 mm	r_wax = 4.9101 mm	r_v = 4.9093 mm	r_ent = 0.0008 mm
Polynomial not fitted yet.
	r = 4.9048 mm	r_pe = 5.0000 mm	r_wax = 4.9048 mm	r_v = 4.9040 mm	r_ent = 0.0008 mm
Polynomial not fitted yet.
	r = 4.9007 mm	r_pe = 5.0000 mm	r_wax = 4.9007 mm	r_v = 4.8999 mm	r_ent = 0.0008 mm
Polynomial not fitted yet.
	r = 4.8953 mm	r_pe = 5.0000 mm	r_wax = 4.8953 mm	r_v = 4.8945 mm	r_ent = 0.0008 mm
Polynomial not fitted yet.
	r = 4.8914 mm	r_pe = 5.0000 mm	r_wax = 4.8914 mm	r_v = 4.8906 mm	r_ent = 0.0008 mm
Polynomial not fitted yet.
	r = 4.8864 mm	r_pe = 5.0000 mm	r_wax = 4.8864 mm	r_v = 4.8856 mm	r_ent = 0.0008 mm
Polynomial not fitted yet.
	r = 4.8820 mm	r_pe = 5.0000 mm	r_wax = 4.8820 mm	r_v = 4.8812 mm	r_ent = 0.0008 mm
Polynomial not fitted yet.
	r = 4.8770 mm	r_pe = 5.0000 mm	r_wax = 4.8770 mm	r_v = 4.8762 mm	r_ent = 0.0008 mm
Polynomial not fitted yet.
	r = 4.8729 mm	r_pe = 5.0000 mm	r_wax = 4.8729 mm	r_v = 4.8721 mm	r_ent = 0.0008 mm
Polynomial not fitted yet.
	r = 4.8678 mm	r_pe = 5.0000 mm	r_wax = 4.8678 mm	r_v = 4.8670 mm	r_ent = 0.0008 mm
Polynomial not fitted yet.
	r = 4.8637 mm	r_pe = 5.0000 mm	r_wax = 4.8637 mm	r_v = 4.8629 mm	r_ent = 0.0008 mm
Polynomial not fitted yet.
	r = 4.8589 mm	r_pe = 5.0000 mm	r_wax = 4.8589 mm	r_v = 4.8581 mm	r_ent = 0.0008 mm
Polynomial not fitted yet.
	r = 5.1622 mm	r_pe = 5.0000 mm	r_wax = 5.1622 mm	r_v = 5.1615 mm	r_ent = 0.0007 mm
Polynomial not fitted yet.
	r = 5.1597 mm	r_pe = 5.0000 mm	r_wax = 5.1597 mm	r_v = 5.1589 mm	r_ent = 0.0007 mm
Polynomial not fitted yet.
	r = 5.1648 mm	r_pe = 5.0000 mm	r_wax = 5.1648 mm	r_v = 5.1641 mm	r_ent = 0.0007 mm
Polynomial not fitted yet.
	r = 5.1674 mm	r_pe = 5.0000 mm	r_wax = 5.1674 mm	r_v = 5.1666 mm	r_ent = 0.0007 mm
Polynomial not fitted yet.
	r = 5.1700 mm	r_pe = 5.0000 mm	r_wax = 5.1700 mm	r_v = 5.1692 mm	r_ent = 0.0007 mm
Polynomial not fitted yet.
	r = 5.1727 mm	r_pe = 5.0000 mm	r_wax = 5.1727 mm	r_v = 5.1719 mm	r_ent = 0.0007 mm
Polynomial not fitted yet.
	r = 5.1753 mm	r_pe = 5.0000 mm	r_wax = 5.1753 mm	r_v = 5.1746 mm	r_ent = 0.0007 mm
Polynomial not fitted yet.
	r = 5.1779 mm	r_pe = 5.0000 mm	r_wax = 5.1779 mm	r_v = 5.1771 mm	r_ent = 0.0007 mm
Polynomial not fitted yet.
	r = 5.1804 mm	r_pe = 5.0000 mm	r_wax = 5.1804 mm	r_v = 5.1797 mm	r_ent = 0.0007 mm
Polynomial not fitted yet.
	r = 5.1830 mm	r_pe = 5.0000 mm	r_wax = 5.1830 mm	r_v = 5.1823 mm	r_ent = 0.0007 mm
Polynomial not fitted yet.
	r = 5.1856 mm	r_pe = 5.0000 mm	r_wax = 5.1856 mm	r_v = 5.1849 mm	r_ent = 0.0007 mm
Polynomial not fitted yet.
	r = 5.1882 mm	r_pe = 5.0000 mm	r_wax = 5.1882 mm	r_v = 5.1875 mm	r_ent = 0.0007 mm
Polynomial not fitted yet.
	r = 5.1908 mm	r_pe = 5.0000 mm	r_wax = 5.1908 mm	r_v = 5.1901 mm	r_ent = 0.0007 mm
Polynomial not fitted yet.
	r = 5.1934 mm	r_pe = 5.0000 mm	r_wax = 5.1934 mm	r_v = 5.1927 mm	r_ent = 0.0007 mm
Polynomial not fitted yet.
	r = 5.1960 mm	r_pe = 5.0000 mm	r_wax = 5.1960 mm	r_v = 5.1953 mm	r_ent = 0.0007 mm
Polynomial not fitted yet.
	r = 5.1986 mm	r_pe = 5.0000 mm	r_wax = 5.1986 mm	r_v = 5.1979 mm	r_ent = 0.0007 mm
Polynomial not fitted yet.
	r = 5.2012 mm	r_pe = 5.0000 mm	r_wax = 5.2012 mm	r_v = 5.2004 mm	r_ent = 0.0007 mm
Polynomial not fitted yet.
	r = 5.2038 mm	r_pe = 5.0000 mm	r_wax = 5.2038 mm	r_v = 5.2030 mm	r_ent = 0.0007 mm
Polynomial not fitted yet.
	r = 5.2064 mm	r_pe = 5.0000 mm	r_wax = 5.2064 mm	r_v = 5.2056 mm	r_ent = 0.0007 mm
Polynomial not fitted yet.
	r = 5.2090 mm	r_pe = 5.0000 mm	r_wax = 5.2090 mm	r_v = 5.2083 mm	r_ent = 0.0007 mm
Polynomial not fitted yet.
	r = 5.2116 mm	r_pe = 5.0000 mm	r_wax = 5.2116 mm	r_v = 5.2109 mm	r_ent = 0.0007 mm
Polynomial not fitted yet.
	r = 5.2142 mm	r_pe = 5.0000 mm	r_wax = 5.2142 mm	r_v = 5.2135 mm	r_ent = 0.0007 mm
Polynomial not fitted yet.
	r = 5.2168 mm	r_pe = 5.0000 mm	r_wax = 5.2168 mm	r_v = 5.2161 mm	r_ent = 0.0007 mm
Polynomial not fitted yet.
	r = 5.2194 mm	r_pe = 5.0000 mm	r_wax = 5.2194 mm	r_v = 5.2186 mm	r_ent = 0.0007 mm
Polynomial not fitted yet.
	r = 5.2220 mm	r_pe = 5.0000 mm	r_wax = 5.2220 mm	r_v = 5.2212 mm	r_ent = 0.0007 mm
Polynomial not fitted yet.
	r = 5.2246 mm	r_pe = 5.0000 mm	r_wax = 5.2246 mm	r_v = 5.2239 mm	r_ent = 0.0007 mm
Polynomial not fitted yet.
	r = 5.2272 mm	r_pe = 5.0000 mm	r_wax = 5.2272 mm	r_v = 5.2265 mm	r_ent = 0.0007 mm
Polynomial not fitted yet.
	r = 5.2298 mm	r_pe = 5.0000 mm	r_wax = 5.2298 mm	r_v = 5.2291 mm	r_ent = 0.0007 mm
Polynomial not fitted yet.
	r = 5.2325 mm	r_pe = 5.0000 mm	r_wax = 5.2325 mm	r_v = 5.2318 mm	r_ent = 0.0007 mm
Polynomial not fitted yet.
	r = 5.2351 mm	r_pe = 5.0000 mm	r_wax = 5.2351 mm	r_v = 5.2344 mm	r_ent = 0.0007 mm
Polynomial not fitted yet.
	r = 5.2377 mm	r_pe = 5.0000 mm	r_wax = 5.2377 mm	r_v = 5.2369 mm	r_ent = 0.0007 mm
Polynomial not fitted yet.
	r = 5.2403 mm	r_pe = 5.0000 mm	r_wax = 5.2403 mm	r_v = 5.2395 mm	r_ent = 0.0007 mm
Polynomial not fitted yet.
	r = 5.2428 mm	r_pe = 5.0000 mm	r_wax = 5.2428 mm	r_v = 5.2421 mm	r_ent = 0.0007 mm
Polynomial not fitted yet.
	r = 5.2454 mm	r_pe = 5.0000 mm	r_wax = 5.2454 mm	r_v = 5.2447 mm	r_ent = 0.0007 mm
Polynomial not fitted yet.
	r = 5.2480 mm	r_pe = 5.0000 mm	r_wax = 5.2480 mm	r_v = 5.2473 mm	r_ent = 0.0007 mm
Polynomial not fitted yet.
	r = 5.2506 mm	r_pe = 5.0000 mm	r_wax = 5.2506 mm	r_v = 5.2499 mm	r_ent = 0.0007 mm
Polynomial not fitted yet.
	r = 5.2532 mm	r_pe = 5.0000 mm	r_wax = 5.2532 mm	r_v = 5.2525 mm	r_ent = 0.0007 mm
Polynomial not fitted yet.
	r = 5.2558 mm	r_pe = 5.0000 mm	r_wax = 5.2558 mm	r_v = 5.2551 mm	r_ent = 0.0007 mm
Polynomial not fitted yet.
	r = 5.2584 mm	r_pe = 5.0000 mm	r_wax = 5.2584 mm	r_v = 5.2577 mm	r_ent = 0.0007 mm
Polynomial not fitted yet.
	r = 5.2610 mm	r_pe = 5.0000 mm	r_wax = 5.2610 mm	r_v = 5.2603 mm	r_ent = 0.0007 mm
Polynomial not fitted yet.
	r = 5.2636 mm	r_pe = 5.0000 mm	r_wax = 5.2636 mm	r_v = 5.2628 mm	r_ent = 0.0007 mm
Polynomial not fitted yet.
	r = 5.2662 mm	r_pe = 5.0000 mm	r_wax = 5.2662 mm	r_v = 5.2655 mm	r_ent = 0.0007 mm
Polynomial not fitted yet.
	r = 5.2688 mm	r_pe = 5.0000 mm	r_wax = 5.2688 mm	r_v = 5.2681 mm	r_ent = 0.0007 mm
Polynomial not fitted yet.
	r = 5.2715 mm	r_pe = 5.0000 mm	r_wax = 5.2715 mm	r_v = 5.2707 mm	r_ent = 0.0007 mm
Polynomial not fitted yet.
	r = 5.2740 mm	r_pe = 5.0000 mm	r_wax = 5.2740 mm	r_v = 5.2733 mm	r_ent = 0.0007 mm
Polynomial not fitted yet.
	r = 5.2767 mm	r_pe = 5.0000 mm	r_wax = 5.2767 mm	r_v = 5.2760 mm	r_ent = 0.0007 mm
Polynomial not fitted yet.
	r = 5.2793 mm	r_pe = 5.0000 mm	r_wax = 5.2793 mm	r_v = 5.2786 mm	r_ent = 0.0007 mm
Polynomial not fitted yet.
	r = 5.2819 mm	r_pe = 5.0000 mm	r_wax = 5.2819 mm	r_v = 5.2812 mm	r_ent = 0.0007 mm
Polynomial not fitted yet.
	r = 5.2846 mm	r_pe = 5.0000 mm	r_wax = 5.2846 mm	r_v = 5.2839 mm	r_ent = 0.0007 mm
Polynomial not fitted yet.
	r = 5.2872 mm	r_pe = 5.0000 mm	r_wax = 5.2872 mm	r_v = 5.2865 mm	r_ent = 0.0007 mm
Polynomial not fitted yet.
	r = 5.2898 mm	r_pe = 5.0000 mm	r_wax = 5.2898 mm	r_v = 5.2891 mm	r_ent = 0.0007 mm
Polynomial not fitted yet.
	r = 5.2924 mm	r_pe = 5.0000 mm	r_wax = 5.2924 mm	r_v = 5.2917 mm	r_ent = 0.0007 mm
Polynomial not fitted yet.
	r = 5.2951 mm	r_pe = 5.0000 mm	r_wax = 5.2951 mm	r_v = 5.2944 mm	r_ent = 0.0007 mm
Polynomial not fitted yet.
	r = 5.2977 mm	r_pe = 5.0000 mm	r_wax = 5.2977 mm	r_v = 5.2970 mm	r_ent = 0.0007 mm
Polynomial not fitted yet.
	r = 5.3004 mm	r_pe = 5.0000 mm	r_wax = 5.3004 mm	r_v = 5.2997 mm	r_ent = 0.0007 mm
Polynomial not fitted yet.
	r = 5.3030 mm	r_pe = 5.0000 mm	r_wax = 5.3030 mm	r_v = 5.3023 mm	r_ent = 0.0007 mm
Polynomial not fitted yet.
	r = 5.3056 mm	r_pe = 5.0000 mm	r_wax = 5.3056 mm	r_v = 5.3049 mm	r_ent = 0.0007 mm
Polynomial not fitted yet.
	r = 5.3082 mm	r_pe = 5.0000 mm	r_wax = 5.3082 mm	r_v = 5.3075 mm	r_ent = 0.0007 mm
Polynomial not fitted yet.
	r = 5.3108 mm	r_pe = 5.0000 mm	r_wax = 5.3108 mm	r_v = 5.3101 mm	r_ent = 0.0007 mm
Polynomial not fitted yet.
	r = 5.3135 mm	r_pe = 5.0000 mm	r_wax = 5.3135 mm	r_v = 5.3128 mm	r_ent = 0.0007 mm
Polynomial not fitted yet.
	r = 5.3161 mm	r_pe = 5.0000 mm	r_wax = 5.3161 mm	r_v = 5.3154 mm	r_ent = 0.0007 mm
Polynomial not fitted yet.
	r = 5.3187 mm	r_pe = 5.0000 mm	r_wax = 5.3187 mm	r_v = 5.3180 mm	r_ent = 0.0007 mm
Polynomial not fitted yet.
	r = 5.3213 mm	r_pe = 5.0000 mm	r_wax = 5.3213 mm	r_v = 5.3206 mm	r_ent = 0.0007 mm
Polynomial not fitted yet.
	r = 5.3239 mm	r_pe = 5.0000 mm	r_wax = 5.3239 mm	r_v = 5.3232 mm	r_ent = 0.0007 mm
Polynomial not fitted yet.
	r = 5.3265 mm	r_pe = 5.0000 mm	r_wax = 5.3265 mm	r_v = 5.3258 mm	r_ent = 0.0007 mm
Polynomial not fitted yet.
	r = 5.3292 mm	r_pe = 5.0000 mm	r_wax = 5.3292 mm	r_v = 5.3285 mm	r_ent = 0.0007 mm
Polynomial not fitted yet.
	r = 5.3318 mm	r_pe = 5.0000 mm	r_wax = 5.3318 mm	r_v = 5.3311 mm	r_ent = 0.0007 mm
Polynomial not fitted yet.
	r = 5.3344 mm	r_pe = 5.0000 mm	r_wax = 5.3344 mm	r_v = 5.3337 mm	r_ent = 0.0007 mm
Polynomial not fitted yet.
	r = 5.3370 mm	r_pe = 5.0000 mm	r_wax = 5.3370 mm	r_v = 5.3363 mm	r_ent = 0.0007 mm
Polynomial not fitted yet.
	r = 5.3397 mm	r_pe = 5.0000 mm	r_wax = 5.3397 mm	r_v = 5.3390 mm	r_ent = 0.0007 mm
Polynomial not fitted yet.
	r = 5.3423 mm	r_pe = 5.0000 mm	r_wax = 5.3423 mm	r_v = 5.3416 mm	r_ent = 0.0007 mm
Polynomial not fitted yet.
	r = 5.3449 mm	r_pe = 5.0000 mm	r_wax = 5.3449 mm	r_v = 5.3442 mm	r_ent = 0.0007 mm
Polynomial not fitted yet.
	r = 5.3475 mm	r_pe = 5.0000 mm	r_wax = 5.3475 mm	r_v = 5.3468 mm	r_ent = 0.0007 mm
Polynomial not fitted yet.
	r = 5.3501 mm	r_pe = 5.0000 mm	r_wax = 5.3501 mm	r_v = 5.3494 mm	r_ent = 0.0007 mm
Polynomial not fitted yet.
	r = 5.3527 mm	r_pe = 5.0000 mm	r_wax = 5.3527 mm	r_v = 5.3520 mm	r_ent = 0.0007 mm
Polynomial not fitted yet.
	r = 5.3554 mm	r_pe = 5.0000 mm	r_wax = 5.3554 mm	r_v = 5.3547 mm	r_ent = 0.0007 mm
Polynomial not fitted yet.
	r = 5.3580 mm	r_pe = 5.0000 mm	r_wax = 5.3580 mm	r_v = 5.3573 mm	r_ent = 0.0007 mm
Polynomial not fitted yet.
	r = 5.3607 mm	r_pe = 5.0000 mm	r_wax = 5.3607 mm	r_v = 5.3600 mm	r_ent = 0.0007 mm
Polynomial not fitted yet.
	r = 5.3634 mm	r_pe = 5.0000 mm	r_wax = 5.3634 mm	r_v = 5.3627 mm	r_ent = 0.0007 mm
Polynomial not fitted yet.
	r = 5.3660 mm	r_pe = 5.0000 mm	r_wax = 5.3660 mm	r_v = 5.3653 mm	r_ent = 0.0007 mm
Polynomial not fitted yet.
	r = 5.3686 mm	r_pe = 5.0000 mm	r_wax = 5.3686 mm	r_v = 5.3679 mm	r_ent = 0.0007 mm
Polynomial not fitted yet.
	r = 5.3713 mm	r_pe = 5.0000 mm	r_wax = 5.3713 mm	r_v = 5.3706 mm	r_ent = 0.0007 mm
Polynomial not fitted yet.
	r = 5.3739 mm	r_pe = 5.0000 mm	r_wax = 5.3739 mm	r_v = 5.3732 mm	r_ent = 0.0007 mm
Polynomial not fitted yet.
	r = 5.3766 mm	r_pe = 5.0000 mm	r_wax = 5.3766 mm	r_v = 5.3759 mm	r_ent = 0.0007 mm
Polynomial not fitted yet.
	r = 5.3793 mm	r_pe = 5.0000 mm	r_wax = 5.3793 mm	r_v = 5.3786 mm	r_ent = 0.0007 mm
Polynomial not fitted yet.
	r = 5.3820 mm	r_pe = 5.0000 mm	r_wax = 5.3820 mm	r_v = 5.3813 mm	r_ent = 0.0007 mm
Polynomial not fitted yet.
	r = 5.3847 mm	r_pe = 5.0000 mm	r_wax = 5.3847 mm	r_v = 5.3840 mm	r_ent = 0.0007 mm
Polynomial not fitted yet.
	r = 5.3873 mm	r_pe = 5.0000 mm	r_wax = 5.3873 mm	r_v = 5.3866 mm	r_ent = 0.0007 mm
Polynomial not fitted yet.
	r = 5.3900 mm	r_pe = 5.0000 mm	r_wax = 5.3900 mm	r_v = 5.3893 mm	r_ent = 0.0007 mm
Polynomial not fitted yet.
	r = 5.3927 mm	r_pe = 5.0000 mm	r_wax = 5.3927 mm	r_v = 5.3920 mm	r_ent = 0.0007 mm
Polynomial not fitted yet.
	r = 5.3953 mm	r_pe = 5.0000 mm	r_wax = 5.3953 mm	r_v = 5.3946 mm	r_ent = 0.0007 mm
Polynomial not fitted yet.
	r = 5.3979 mm	r_pe = 5.0000 mm	r_wax = 5.3979 mm	r_v = 5.3972 mm	r_ent = 0.0007 mm
Polynomial not fitted yet.
	r = 5.4006 mm	r_pe = 5.0000 mm	r_wax = 5.4006 mm	r_v = 5.3999 mm	r_ent = 0.0007 mm
Polynomial not fitted yet.
	r = 5.4033 mm	r_pe = 5.0000 mm	r_wax = 5.4033 mm	r_v = 5.4026 mm	r_ent = 0.0007 mm
Polynomial not fitted yet.
	r = 5.4060 mm	r_pe = 5.0000 mm	r_wax = 5.4060 mm	r_v = 5.4053 mm	r_ent = 0.0007 mm
Polynomial not fitted yet.
	r = 5.4088 mm	r_pe = 5.0000 mm	r_wax = 5.4088 mm	r_v = 5.4081 mm	r_ent = 0.0007 mm
Polynomial not fitted yet.
	r = 5.4115 mm	r_pe = 5.0000 mm	r_wax = 5.4115 mm	r_v = 5.4108 mm	r_ent = 0.0007 mm
Polynomial not fitted yet.
	r = 5.4143 mm	r_pe = 5.0000 mm	r_wax = 5.4143 mm	r_v = 5.4136 mm	r_ent = 0.0007 mm
Polynomial not fitted yet.
	r = 5.4170 mm	r_pe = 5.0000 mm	r_wax = 5.4170 mm	r_v = 5.4163 mm	r_ent = 0.0007 mm
Polynomial not fitted yet.
	r = 5.4198 mm	r_pe = 5.0000 mm	r_wax = 5.4198 mm	r_v = 5.4191 mm	r_ent = 0.0007 mm
Polynomial not fitted yet.
	r = 5.4225 mm	r_pe = 5.0000 mm	r_wax = 5.4225 mm	r_v = 5.4218 mm	r_ent = 0.0007 mm
Polynomial not fitted yet.
	r = 5.4251 mm	r_pe = 5.0000 mm	r_wax = 5.4251 mm	r_v = 5.4244 mm	r_ent = 0.0007 mm
Polynomial not fitted yet.
	r = 5.4277 mm	r_pe = 5.0000 mm	r_wax = 5.4277 mm	r_v = 5.4270 mm	r_ent = 0.0007 mm
Polynomial not fitted yet.
	r = 5.4303 mm	r_pe = 5.0000 mm	r_wax = 5.4303 mm	r_v = 5.4297 mm	r_ent = 0.0007 mm
Polynomial not fitted yet.
	r = 5.4330 mm	r_pe = 5.0000 mm	r_wax = 5.4330 mm	r_v = 5.4323 mm	r_ent = 0.0007 mm
Polynomial not fitted yet.
	r = 5.4357 mm	r_pe = 5.0000 mm	r_wax = 5.4357 mm	r_v = 5.4350 mm	r_ent = 0.0007 mm
Polynomial not fitted yet.
	r = 5.4385 mm	r_pe = 5.0000 mm	r_wax = 5.4385 mm	r_v = 5.4378 mm	r_ent = 0.0007 mm
Polynomial not fitted yet.
	r = 5.4412 mm	r_pe = 5.0000 mm	r_wax = 5.4412 mm	r_v = 5.4405 mm	r_ent = 0.0007 mm
Polynomial not fitted yet.
	r = 5.4438 mm	r_pe = 5.0000 mm	r_wax = 5.4438 mm	r_v = 5.4431 mm	r_ent = 0.0007 mm
Polynomial not fitted yet.
	r = 5.4465 mm	r_pe = 5.0000 mm	r_wax = 5.4465 mm	r_v = 5.4458 mm	r_ent = 0.0007 mm
Polynomial not fitted yet.
	r = 5.4492 mm	r_pe = 5.0000 mm	r_wax = 5.4492 mm	r_v = 5.4486 mm	r_ent = 0.0007 mm
Polynomial not fitted yet.
	r = 5.4739 mm	r_pe = 5.0000 mm	r_wax = 5.4739 mm	r_v = 5.4732 mm	r_ent = 0.0007 mm
Polynomial not fitted yet.
	r = 5.4711 mm	r_pe = 5.0000 mm	r_wax = 5.4711 mm	r_v = 5.4705 mm	r_ent = 0.0007 mm
Polynomial not fitted yet.
	r = 5.4685 mm	r_pe = 5.0000 mm	r_wax = 5.4685 mm	r_v = 5.4678 mm	r_ent = 0.0007 mm
Polynomial not fitted yet.
	r = 5.4767 mm	r_pe = 5.0000 mm	r_wax = 5.4767 mm	r_v = 5.4760 mm	r_ent = 0.0007 mm
Polynomial not fitted yet.
	r = 5.4795 mm	r_pe = 5.0000 mm	r_wax = 5.4795 mm	r_v = 5.4788 mm	r_ent = 0.0007 mm
Polynomial not fitted yet.
	r = 5.4823 mm	r_pe = 5.0000 mm	r_wax = 5.4823 mm	r_v = 5.4816 mm	r_ent = 0.0007 mm
Polynomial not fitted yet.
	r = 5.4851 mm	r_pe = 5.0000 mm	r_wax = 5.4851 mm	r_v = 5.4845 mm	r_ent = 0.0007 mm
Polynomial not fitted yet.
	r = 5.4879 mm	r_pe = 5.0000 mm	r_wax = 5.4879 mm	r_v = 5.4873 mm	r_ent = 0.0007 mm
Polynomial not fitted yet.
	r = 5.4657 mm	r_pe = 5.0000 mm	r_wax = 5.4657 mm	r_v = 5.4650 mm	r_ent = 0.0007 mm
Polynomial not fitted yet.
	r = 5.4908 mm	r_pe = 5.0000 mm	r_wax = 5.4908 mm	r_v = 5.4901 mm	r_ent = 0.0007 mm
Polynomial not fitted yet.
	r = 5.4937 mm	r_pe = 5.0000 mm	r_wax = 5.4937 mm	r_v = 5.4930 mm	r_ent = 0.0007 mm
Polynomial not fitted yet.
	r = 5.4629 mm	r_pe = 5.0000 mm	r_wax = 5.4629 mm	r_v = 5.4623 mm	r_ent = 0.0007 mm
Polynomial not fitted yet.
	r = 5.4966 mm	r_pe = 5.0000 mm	r_wax = 5.4966 mm	r_v = 5.4959 mm	r_ent = 0.0007 mm
Polynomial not fitted yet.
	r = 5.4602 mm	r_pe = 5.0000 mm	r_wax = 5.4602 mm	r_v = 5.4595 mm	r_ent = 0.0007 mm
Polynomial not fitted yet.
	r = 5.4995 mm	r_pe = 5.0000 mm	r_wax = 5.4995 mm	r_v = 5.4989 mm	r_ent = 0.0007 mm
Polynomial not fitted yet.
	r = 5.4574 mm	r_pe = 5.0000 mm	r_wax = 5.4574 mm	r_v = 5.4568 mm	r_ent = 0.0007 mm
Polynomial not fitted yet.
	r = 5.5025 mm	r_pe = 5.0000 mm	r_wax = 5.5025 mm	r_v = 5.5018 mm	r_ent = 0.0007 mm
Polynomial not fitted yet.
	r = 5.4547 mm	r_pe = 5.0000 mm	r_wax = 5.4547 mm	r_v = 5.4540 mm	r_ent = 0.0007 mm
Polynomial not fitted yet.
	r = 5.5054 mm	r_pe = 5.0000 mm	r_wax = 5.5054 mm	r_v = 5.5047 mm	r_ent = 0.0007 mm
Polynomial not fitted yet.
	r = 5.4520 mm	r_pe = 5.0000 mm	r_wax = 5.4520 mm	r_v = 5.4514 mm	r_ent = 0.0007 mm
Polynomial not fitted yet.
	r = 5.5083 mm	r_pe = 5.0000 mm	r_wax = 5.5083 mm	r_v = 5.5077 mm	r_ent = 0.0007 mm
Polynomial not fitted yet.
	r = 5.5112 mm	r_pe = 5.0000 mm	r_wax = 5.5112 mm	r_v = 5.5106 mm	r_ent = 0.0007 mm
Polynomial not fitted yet.
	r = 5.5141 mm	r_pe = 5.0000 mm	r_wax = 5.5141 mm	r_v = 5.5134 mm	r_ent = 0.0007 mm
Polynomial not fitted yet.
	r = 5.5167 mm	r_pe = 5.0000 mm	r_wax = 5.5167 mm	r_v = 5.5160 mm	r_ent = 0.0007 mm
Polynomial not fitted yet.
	r = 5.5192 mm	r_pe = 5.0000 mm	r_wax = 5.5192 mm	r_v = 5.5186 mm	r_ent = 0.0007 mm
Polynomial not fitted yet.
	r = 5.5216 mm	r_pe = 5.0000 mm	r_wax = 5.5216 mm	r_v = 5.5209 mm	r_ent = 0.0007 mm
Polynomial not fitted yet.
	r = 5.5238 mm	r_pe = 5.0000 mm	r_wax = 5.5238 mm	r_v = 5.5231 mm	r_ent = 0.0007 mm
Polynomial not fitted yet.
	r = 5.5259 mm	r_pe = 5.0000 mm	r_wax = 5.5259 mm	r_v = 5.5253 mm	r_ent = 0.0007 mm
Polynomial not fitted yet.
	r = 5.5281 mm	r_pe = 5.0000 mm	r_wax = 5.5281 mm	r_v = 5.5274 mm	r_ent = 0.0007 mm
Polynomial not fitted yet.
	r = 5.5303 mm	r_pe = 5.0000 mm	r_wax = 5.5303 mm	r_v = 5.5297 mm	r_ent = 0.0007 mm
Polynomial not fitted yet.
	r = 5.5328 mm	r_pe = 5.0000 mm	r_wax = 5.5328 mm	r_v = 5.5321 mm	r_ent = 0.0007 mm
Polynomial not fitted yet.
	r = 5.5353 mm	r_pe = 5.0000 mm	r_wax = 5.5353 mm	r_v = 5.5346 mm	r_ent = 0.0007 mm
Polynomial not fitted yet.
	r = 5.5379 mm	r_pe = 5.0000 mm	r_wax = 5.5379 mm	r_v = 5.5372 mm	r_ent = 0.0007 mm
Polynomial not fitted yet.
	r = 5.5405 mm	r_pe = 5.0000 mm	r_wax = 5.5405 mm	r_v = 5.5398 mm	r_ent = 0.0007 mm
Polynomial not fitted yet.
	r = 5.5432 mm	r_pe = 5.0000 mm	r_wax = 5.5432 mm	r_v = 5.5425 mm	r_ent = 0.0007 mm
Polynomial not fitted yet.
	r = 5.5459 mm	r_pe = 5.0000 mm	r_wax = 5.5459 mm	r_v = 5.5453 mm	r_ent = 0.0007 mm
Polynomial not fitted yet.
	r = 5.5487 mm	r_pe = 5.0000 mm	r_wax = 5.5487 mm	r_v = 5.5480 mm	r_ent = 0.0007 mm
Polynomial not fitted yet.
	r = 5.5514 mm	r_pe = 5.0000 mm	r_wax = 5.5514 mm	r_v = 5.5507 mm	r_ent = 0.0007 mm
Polynomial not fitted yet.
	r = 5.5542 mm	r_pe = 5.0000 mm	r_wax = 5.5542 mm	r_v = 5.5535 mm	r_ent = 0.0007 mm
Polynomial not fitted yet.
	r = 5.5569 mm	r_pe = 5.0000 mm	r_wax = 5.5569 mm	r_v = 5.5562 mm	r_ent = 0.0007 mm
Polynomial not fitted yet.
	r = 5.5595 mm	r_pe = 5.0000 mm	r_wax = 5.5595 mm	r_v = 5.5589 mm	r_ent = 0.0007 mm
Polynomial not fitted yet.
	r = 5.5623 mm	r_pe = 5.0000 mm	r_wax = 5.5623 mm	r_v = 5.5616 mm	r_ent = 0.0007 mm
Polynomial not fitted yet.
	r = 5.5650 mm	r_pe = 5.0000 mm	r_wax = 5.5650 mm	r_v = 5.5643 mm	r_ent = 0.0007 mm
Polynomial not fitted yet.
	r = 5.5677 mm	r_pe = 5.0000 mm	r_wax = 5.5677 mm	r_v = 5.5670 mm	r_ent = 0.0007 mm
Polynomial not fitted yet.
	r = 5.5704 mm	r_pe = 5.0000 mm	r_wax = 5.5704 mm	r_v = 5.5697 mm	r_ent = 0.0007 mm
Polynomial not fitted yet.
	r = 5.5731 mm	r_pe = 5.0000 mm	r_wax = 5.5731 mm	r_v = 5.5724 mm	r_ent = 0.0007 mm
Polynomial not fitted yet.
	r = 5.5758 mm	r_pe = 5.0000 mm	r_wax = 5.5758 mm	r_v = 5.5752 mm	r_ent = 0.0007 mm
Polynomial not fitted yet.
	r = 5.5785 mm	r_pe = 5.0000 mm	r_wax = 5.5785 mm	r_v = 5.5779 mm	r_ent = 0.0007 mm
Polynomial not fitted yet.
	r = 5.5813 mm	r_pe = 5.0000 mm	r_wax = 5.5813 mm	r_v = 5.5806 mm	r_ent = 0.0007 mm
Polynomial not fitted yet.
	r = 5.5839 mm	r_pe = 5.0000 mm	r_wax = 5.5839 mm	r_v = 5.5833 mm	r_ent = 0.0007 mm
Polynomial not fitted yet.
	r = 5.5867 mm	r_pe = 5.0000 mm	r_wax = 5.5867 mm	r_v = 5.5860 mm	r_ent = 0.0007 mm
Polynomial not fitted yet.
	r = 5.5893 mm	r_pe = 5.0000 mm	r_wax = 5.5893 mm	r_v = 5.5887 mm	r_ent = 0.0007 mm
Polynomial not fitted yet.
	r = 5.5921 mm	r_pe = 5.0000 mm	r_wax = 5.5921 mm	r_v = 5.5914 mm	r_ent = 0.0007 mm
Polynomial not fitted yet.
	r = 5.5949 mm	r_pe = 5.0000 mm	r_wax = 5.5949 mm	r_v = 5.5942 mm	r_ent = 0.0007 mm
Polynomial not fitted yet.
	r = 5.5976 mm	r_pe = 5.0000 mm	r_wax = 5.5976 mm	r_v = 5.5970 mm	r_ent = 0.0007 mm
Polynomial not fitted yet.
	r = 5.6003 mm	r_pe = 5.0000 mm	r_wax = 5.6003 mm	r_v = 5.5996 mm	r_ent = 0.0007 mm
Polynomial not fitted yet.
	r = 5.6030 mm	r_pe = 5.0000 mm	r_wax = 5.6030 mm	r_v = 5.6024 mm	r_ent = 0.0007 mm
Polynomial not fitted yet.
	r = 5.6057 mm	r_pe = 5.0000 mm	r_wax = 5.6057 mm	r_v = 5.6050 mm	r_ent = 0.0007 mm
Polynomial not fitted yet.
	r = 5.6084 mm	r_pe = 5.0000 mm	r_wax = 5.6084 mm	r_v = 5.6078 mm	r_ent = 0.0007 mm
Polynomial not fitted yet.
	r = 5.6111 mm	r_pe = 5.0000 mm	r_wax = 5.6111 mm	r_v = 5.6104 mm	r_ent = 0.0007 mm
Polynomial not fitted yet.
	r = 5.6138 mm	r_pe = 5.0000 mm	r_wax = 5.6138 mm	r_v = 5.6132 mm	r_ent = 0.0007 mm
Polynomial not fitted yet.
	r = 5.6165 mm	r_pe = 5.0000 mm	r_wax = 5.6165 mm	r_v = 5.6159 mm	r_ent = 0.0007 mm
Polynomial not fitted yet.
	r = 5.6193 mm	r_pe = 5.0000 mm	r_wax = 5.6193 mm	r_v = 5.6187 mm	r_ent = 0.0007 mm
Polynomial not fitted yet.
	r = 5.6220 mm	r_pe = 5.0000 mm	r_wax = 5.6220 mm	r_v = 5.6213 mm	r_ent = 0.0007 mm
Polynomial not fitted yet.
	r = 5.6247 mm	r_pe = 5.0000 mm	r_wax = 5.6247 mm	r_v = 5.6240 mm	r_ent = 0.0006 mm
Polynomial not fitted yet.
	r = 5.6273 mm	r_pe = 5.0000 mm	r_wax = 5.6273 mm	r_v = 5.6267 mm	r_ent = 0.0006 mm
Polynomial not fitted yet.
	r = 5.6300 mm	r_pe = 5.0000 mm	r_wax = 5.6300 mm	r_v = 5.6294 mm	r_ent = 0.0006 mm
Polynomial not fitted yet.
	r = 5.6328 mm	r_pe = 5.0000 mm	r_wax = 5.6328 mm	r_v = 5.6321 mm	r_ent = 0.0006 mm
Polynomial not fitted yet.
	r = 5.6355 mm	r_pe = 5.0000 mm	r_wax = 5.6355 mm	r_v = 5.6348 mm	r_ent = 0.0006 mm
Polynomial not fitted yet.
	r = 5.6381 mm	r_pe = 5.0000 mm	r_wax = 5.6381 mm	r_v = 5.6374 mm	r_ent = 0.0006 mm
Polynomial not fitted yet.
	r = 5.6409 mm	r_pe = 5.0000 mm	r_wax = 5.6409 mm	r_v = 5.6402 mm	r_ent = 0.0006 mm
Polynomial not fitted yet.
	r = 5.6435 mm	r_pe = 5.0000 mm	r_wax = 5.6435 mm	r_v = 5.6429 mm	r_ent = 0.0006 mm
Polynomial not fitted yet.
	r = 5.6463 mm	r_pe = 5.0000 mm	r_wax = 5.6463 mm	r_v = 5.6456 mm	r_ent = 0.0006 mm
Polynomial not fitted yet.
	r = 5.6489 mm	r_pe = 5.0000 mm	r_wax = 5.6489 mm	r_v = 5.6483 mm	r_ent = 0.0006 mm
Polynomial not fitted yet.
	r = 5.6516 mm	r_pe = 5.0000 mm	r_wax = 5.6516 mm	r_v = 5.6509 mm	r_ent = 0.0006 mm
Polynomial not fitted yet.
	r = 5.6542 mm	r_pe = 5.0000 mm	r_wax = 5.6542 mm	r_v = 5.6536 mm	r_ent = 0.0006 mm
Polynomial not fitted yet.
	r = 5.6569 mm	r_pe = 5.0000 mm	r_wax = 5.6569 mm	r_v = 5.6563 mm	r_ent = 0.0006 mm
Polynomial not fitted yet.
	r = 5.6596 mm	r_pe = 5.0000 mm	r_wax = 5.6596 mm	r_v = 5.6589 mm	r_ent = 0.0006 mm
Polynomial not fitted yet.
	r = 5.6623 mm	r_pe = 5.0000 mm	r_wax = 5.6623 mm	r_v = 5.6617 mm	r_ent = 0.0006 mm
Polynomial not fitted yet.
	r = 5.6649 mm	r_pe = 5.0000 mm	r_wax = 5.6649 mm	r_v = 5.6643 mm	r_ent = 0.0006 mm
Polynomial not fitted yet.
	r = 5.6676 mm	r_pe = 5.0000 mm	r_wax = 5.6676 mm	r_v = 5.6670 mm	r_ent = 0.0006 mm
Polynomial not fitted yet.
	r = 5.6703 mm	r_pe = 5.0000 mm	r_wax = 5.6703 mm	r_v = 5.6696 mm	r_ent = 0.0006 mm
Polynomial not fitted yet.
	r = 5.6730 mm	r_pe = 5.0000 mm	r_wax = 5.6730 mm	r_v = 5.6724 mm	r_ent = 0.0006 mm
Polynomial not fitted yet.
	r = 5.6758 mm	r_pe = 5.0000 mm	r_wax = 5.6758 mm	r_v = 5.6751 mm	r_ent = 0.0006 mm
Polynomial not fitted yet.
	r = 5.6785 mm	r_pe = 5.0000 mm	r_wax = 5.6785 mm	r_v = 5.6779 mm	r_ent = 0.0006 mm
Polynomial not fitted yet.
	r = 5.6812 mm	r_pe = 5.0000 mm	r_wax = 5.6812 mm	r_v = 5.6806 mm	r_ent = 0.0006 mm
Polynomial not fitted yet.
	r = 5.6839 mm	r_pe = 5.0000 mm	r_wax = 5.6839 mm	r_v = 5.6833 mm	r_ent = 0.0006 mm
Polynomial not fitted yet.
	r = 5.6867 mm	r_pe = 5.0000 mm	r_wax = 5.6867 mm	r_v = 5.6861 mm	r_ent = 0.0006 mm
Polynomial not fitted yet.
	r = 5.6894 mm	r_pe = 5.0000 mm	r_wax = 5.6894 mm	r_v = 5.6887 mm	r_ent = 0.0006 mm
Polynomial not fitted yet.
	r = 5.6920 mm	r_pe = 5.0000 mm	r_wax = 5.6920 mm	r_v = 5.6914 mm	r_ent = 0.0006 mm
Polynomial not fitted yet.
	r = 5.6947 mm	r_pe = 5.0000 mm	r_wax = 5.6947 mm	r_v = 5.6940 mm	r_ent = 0.0006 mm
Polynomial not fitted yet.
	r = 5.6973 mm	r_pe = 5.0000 mm	r_wax = 5.6973 mm	r_v = 5.6967 mm	r_ent = 0.0006 mm
Polynomial not fitted yet.
	r = 5.7000 mm	r_pe = 5.0000 mm	r_wax = 5.7000 mm	r_v = 5.6993 mm	r_ent = 0.0006 mm
Polynomial not fitted yet.
	r = 5.7026 mm	r_pe = 5.0000 mm	r_wax = 5.7026 mm	r_v = 5.7019 mm	r_ent = 0.0006 mm
Polynomial not fitted yet.
	r = 5.7053 mm	r_pe = 5.0000 mm	r_wax = 5.7053 mm	r_v = 5.7047 mm	r_ent = 0.0006 mm
Polynomial not fitted yet.
	r = 5.7079 mm	r_pe = 5.0000 mm	r_wax = 5.7079 mm	r_v = 5.7073 mm	r_ent = 0.0006 mm
Polynomial not fitted yet.
	r = 5.7106 mm	r_pe = 5.0000 mm	r_wax = 5.7106 mm	r_v = 5.7100 mm	r_ent = 0.0006 mm
Polynomial not fitted yet.
	r = 5.7133 mm	r_pe = 5.0000 mm	r_wax = 5.7133 mm	r_v = 5.7126 mm	r_ent = 0.0006 mm
Polynomial not fitted yet.
	r = 5.7160 mm	r_pe = 5.0000 mm	r_wax = 5.7160 mm	r_v = 5.7153 mm	r_ent = 0.0006 mm
Polynomial not fitted yet.
	r = 5.7186 mm	r_pe = 5.0000 mm	r_wax = 5.7186 mm	r_v = 5.7180 mm	r_ent = 0.0006 mm
Polynomial not fitted yet.
	r = 5.7213 mm	r_pe = 5.0000 mm	r_wax = 5.7213 mm	r_v = 5.7207 mm	r_ent = 0.0006 mm
Polynomial not fitted yet.
	r = 5.7240 mm	r_pe = 5.0000 mm	r_wax = 5.7240 mm	r_v = 5.7234 mm	r_ent = 0.0006 mm
Polynomial not fitted yet.
	r = 5.7267 mm	r_pe = 5.0000 mm	r_wax = 5.7267 mm	r_v = 5.7261 mm	r_ent = 0.0006 mm
Polynomial not fitted yet.
	r = 5.7294 mm	r_pe = 5.0000 mm	r_wax = 5.7294 mm	r_v = 5.7287 mm	r_ent = 0.0006 mm
Polynomial not fitted yet.
	r = 5.7320 mm	r_pe = 5.0000 mm	r_wax = 5.7320 mm	r_v = 5.7313 mm	r_ent = 0.0006 mm
Polynomial not fitted yet.
	r = 5.7346 mm	r_pe = 5.0000 mm	r_wax = 5.7346 mm	r_v = 5.7340 mm	r_ent = 0.0006 mm
Polynomial not fitted yet.
	r = 5.7372 mm	r_pe = 5.0000 mm	r_wax = 5.7372 mm	r_v = 5.7366 mm	r_ent = 0.0006 mm
Polynomial not fitted yet.
	r = 5.7399 mm	r_pe = 5.0000 mm	r_wax = 5.7399 mm	r_v = 5.7393 mm	r_ent = 0.0006 mm
Polynomial not fitted yet.
	r = 5.7425 mm	r_pe = 5.0000 mm	r_wax = 5.7425 mm	r_v = 5.7419 mm	r_ent = 0.0006 mm
Polynomial not fitted yet.
	r = 5.7452 mm	r_pe = 5.0000 mm	r_wax = 5.7452 mm	r_v = 5.7446 mm	r_ent = 0.0006 mm
Polynomial not fitted yet.
	r = 5.7478 mm	r_pe = 5.0000 mm	r_wax = 5.7478 mm	r_v = 5.7471 mm	r_ent = 0.0006 mm
Polynomial not fitted yet.
	r = 5.7505 mm	r_pe = 5.0000 mm	r_wax = 5.7505 mm	r_v = 5.7498 mm	r_ent = 0.0006 mm
Polynomial not fitted yet.
	r = 5.7530 mm	r_pe = 5.0000 mm	r_wax = 5.7530 mm	r_v = 5.7523 mm	r_ent = 0.0006 mm
Polynomial not fitted yet.
	r = 5.7557 mm	r_pe = 5.0000 mm	r_wax = 5.7557 mm	r_v = 5.7551 mm	r_ent = 0.0006 mm
Polynomial not fitted yet.
	r = 5.7582 mm	r_pe = 5.0000 mm	r_wax = 5.7582 mm	r_v = 5.7576 mm	r_ent = 0.0006 mm
Polynomial not fitted yet.
	r = 5.7609 mm	r_pe = 5.0000 mm	r_wax = 5.7609 mm	r_v = 5.7603 mm	r_ent = 0.0006 mm
Polynomial not fitted yet.
	r = 5.7635 mm	r_pe = 5.0000 mm	r_wax = 5.7635 mm	r_v = 5.7629 mm	r_ent = 0.0006 mm
Polynomial not fitted yet.
	r = 5.7661 mm	r_pe = 5.0000 mm	r_wax = 5.7661 mm	r_v = 5.7655 mm	r_ent = 0.0006 mm
Polynomial not fitted yet.
	r = 5.7687 mm	r_pe = 5.0000 mm	r_wax = 5.7687 mm	r_v = 5.7680 mm	r_ent = 0.0006 mm
Polynomial not fitted yet.
	r = 5.7713 mm	r_pe = 5.0000 mm	r_wax = 5.7713 mm	r_v = 5.7707 mm	r_ent = 0.0006 mm
Polynomial not fitted yet.
	r = 5.7739 mm	r_pe = 5.0000 mm	r_wax = 5.7739 mm	r_v = 5.7733 mm	r_ent = 0.0006 mm
Polynomial not fitted yet.
	r = 5.7765 mm	r_pe = 5.0000 mm	r_wax = 5.7765 mm	r_v = 5.7759 mm	r_ent = 0.0006 mm
Polynomial not fitted yet.
	r = 5.7791 mm	r_pe = 5.0000 mm	r_wax = 5.7791 mm	r_v = 5.7785 mm	r_ent = 0.0006 mm
Polynomial not fitted yet.
	r = 5.7817 mm	r_pe = 5.0000 mm	r_wax = 5.7817 mm	r_v = 5.7811 mm	r_ent = 0.0006 mm
Polynomial not fitted yet.
	r = 5.7843 mm	r_pe = 5.0000 mm	r_wax = 5.7843 mm	r_v = 5.7836 mm	r_ent = 0.0006 mm
Polynomial not fitted yet.
	r = 5.7868 mm	r_pe = 5.0000 mm	r_wax = 5.7868 mm	r_v = 5.7862 mm	r_ent = 0.0006 mm
Polynomial not fitted yet.
	r = 5.7894 mm	r_pe = 5.0000 mm	r_wax = 5.7894 mm	r_v = 5.7888 mm	r_ent = 0.0006 mm
Polynomial not fitted yet.
	r = 5.7920 mm	r_pe = 5.0000 mm	r_wax = 5.7920 mm	r_v = 5.7914 mm	r_ent = 0.0006 mm
Polynomial not fitted yet.
	r = 5.7947 mm	r_pe = 5.0000 mm	r_wax = 5.7947 mm	r_v = 5.7941 mm	r_ent = 0.0006 mm
Polynomial not fitted yet.
[...]
Polynomial not fitted yet.
	r = 5.8229 mm	r_pe = 5.0000 mm	r_wax = 5.8229 mm	r_v = 5.8223 mm	r_ent = 0.0006 mm
Polynomial not fitted yet.
	r = 5.8255 mm	r_pe = 5.0000 mm	r_wax = 5.8255 mm	r_v = 5.8249 mm	r_ent = 0.0006 mm
Polynomial not fitted yet.
	r = 5.8166 mm	r_pe = 5.0000 mm	r_wax = 5.8166 mm	r_v = 5.8160 mm	r_ent = 0.0006 mm
Polynomial not fitted yet.
	r = 5.8281 mm	r_pe = 5.0000 mm	r_wax = 5.8281 mm	r_v = 5.8275 mm	r_ent = 0.0006 mm
Polynomial not fitted yet.
	r = 5.8306 mm	r_pe = 5.0000 mm	r_wax = 5.8306 mm	r_v = 5.8300 mm	r_ent = 0.0006 mm
Polynomial not fitted yet.
	r = 5.8331 mm	r_pe = 5.0000 mm	r_wax = 5.8331 mm	r_v = 5.8325 mm	r_ent = 0.0006 mm
Polynomial not fitted yet.
	r = 5.8357 mm	r_pe = 5.0000 mm	r_wax = 5.8357 mm	r_v = 5.8351 mm	r_ent = 0.0006 mm
Polynomial not fitted yet.
	r = 5.8383 mm	r_pe = 5.0000 mm	r_wax = 5.8383 mm	r_v = 5.8376 mm	r_ent = 0.0006 mm
Polynomial not fitted yet.
	r = 5.8409 mm	r_pe = 5.0000 mm	r_wax = 5.8409 mm	r_v = 5.8402 mm	r_ent = 0.0006 mm
Polynomial not fitted yet.
	r = 5.8435 mm	r_pe = 5.0000 mm	r_wax = 5.8435 mm	r_v = 5.8428 mm	r_ent = 0.0006 mm
Polynomial not fitted yet.
	r = 5.8460 mm	r_pe = 5.0000 mm	r_wax = 5.8460 mm	r_v = 5.8454 mm	r_ent = 0.0006 mm
Polynomial not fitted yet.
	r = 5.8486 mm	r_pe = 5.0000 mm	r_wax = 5.8486 mm	r_v = 5.8480 mm	r_ent = 0.0006 mm
Polynomial not fitted yet.
	r = 5.8513 mm	r_pe = 5.0000 mm	r_wax = 5.8513 mm	r_v = 5.8506 mm	r_ent = 0.0006 mm
Polynomial not fitted yet.
	r = 5.8539 mm	r_pe = 5.0000 mm	r_wax = 5.8539 mm	r_v = 5.8533 mm	r_ent = 0.0006 mm
Polynomial not fitted yet.
	r = 5.8564 mm	r_pe = 5.0000 mm	r_wax = 5.8564 mm	r_v = 5.8558 mm	r_ent = 0.0006 mm
Polynomial not fitted yet.
	r = 5.8590 mm	r_pe = 5.0000 mm	r_wax = 5.8590 mm	r_v = 5.8584 mm	r_ent = 0.0006 mm
Polynomial not fitted yet.
	r = 5.8616 mm	r_pe = 5.0000 mm	r_wax = 5.8616 mm	r_v = 5.8610 mm	r_ent = 0.0006 mm
Polynomial not fitted yet.
	r = 5.8642 mm	r_pe = 5.0000 mm	r_wax = 5.8642 mm	r_v = 5.8636 mm	r_ent = 0.0006 mm
Polynomial not fitted yet.
	r = 5.8668 mm	r_pe = 5.0000 mm	r_wax = 5.8668 mm	r_v = 5.8662 mm	r_ent = 0.0006 mm
Polynomial not fitted yet.
	r = 5.8694 mm	r_pe = 5.0000 mm	r_wax = 5.8694 mm	r_v = 5.8688 mm	r_ent = 0.0006 mm
Polynomial not fitted yet.
	r = 5.8719 mm	r_pe = 5.0000 mm	r_wax = 5.8719 mm	r_v = 5.8713 mm	r_ent = 0.0006 mm
Polynomial not fitted yet.
	r = 5.8745 mm	r_pe = 5.0000 mm	r_wax = 5.8745 mm	r_v = 5.8739 mm	r_ent = 0.0006 mm
Polynomial not fitted yet.
	r = 5.8770 mm	r_pe = 5.0000 mm	r_wax = 5.8770 mm	r_v = 5.8764 mm	r_ent = 0.0006 mm
Polynomial not fitted yet.
	r = 5.8796 mm	r_pe = 5.0000 mm	r_wax = 5.8796 mm	r_v = 5.8789 mm	r_ent = 0.0006 mm
Polynomial not fitted yet.
	r = 5.8821 mm	r_pe = 5.0000 mm	r_wax = 5.8821 mm	r_v = 5.8815 mm	r_ent = 0.0006 mm
Polynomial not fitted yet.
	r = 5.8846 mm	r_pe = 5.0000 mm	r_wax = 5.8846 mm	r_v = 5.8840 mm	r_ent = 0.0006 mm
Polynomial not fitted yet.
	r = 5.8872 mm	r_pe = 5.0000 mm	r_wax = 5.8872 mm	r_v = 5.8866 mm	r_ent = 0.0006 mm
Polynomial not fitted yet.
	r = 5.8898 mm	r_pe = 5.0000 mm	r_wax = 5.8898 mm	r_v = 5.8892 mm	r_ent = 0.0006 mm
Polynomial not fitted yet.
	r = 5.8924 mm	r_pe = 5.0000 mm	r_wax = 5.8924 mm	r_v = 5.8918 mm	r_ent = 0.0006 mm
Polynomial not fitted yet.
	r = 5.8949 mm	r_pe = 5.0000 mm	r_wax = 5.8949 mm	r_v = 5.8943 mm	r_ent = 0.0006 mm
Polynomial not fitted yet.
	r = 5.8975 mm	r_pe = 5.0000 mm	r_wax = 5.8975 mm	r_v = 5.8969 mm	r_ent = 0.0006 mm
Polynomial not fitted yet.
	r = 5.9000 mm	r_pe = 5.0000 mm	r_wax = 5.9000 mm	r_v = 5.8994 mm	r_ent = 0.0006 mm
Polynomial not fitted yet.
	r = 5.9026 mm	r_pe = 5.0000 mm	r_wax = 5.9026 mm	r_v = 5.9020 mm	r_ent = 0.0006 mm
Polynomial not fitted yet.
	r = 5.9052 mm	r_pe = 5.0000 mm	r_wax = 5.9052 mm	r_v = 5.9046 mm	r_ent = 0.0006 mm
Polynomial not fitted yet.
	r = 5.9078 mm	r_pe = 5.0000 mm	r_wax = 5.9078 mm	r_v = 5.9072 mm	r_ent = 0.0006 mm
Polynomial not fitted yet.
	r = 5.9103 mm	r_pe = 5.0000 mm	r_wax = 5.9103 mm	r_v = 5.9097 mm	r_ent = 0.0006 mm
Polynomial not fitted yet.
	r = 5.9129 mm	r_pe = 5.0000 mm	r_wax = 5.9129 mm	r_v = 5.9123 mm	r_ent = 0.0006 mm
Polynomial not fitted yet.
	r = 5.9154 mm	r_pe = 5.0000 mm	r_wax = 5.9154 mm	r_v = 5.9148 mm	r_ent = 0.0006 mm
Polynomial not fitted yet.
	r = 5.9179 mm	r_pe = 5.0000 mm	r_wax = 5.9179 mm	r_v = 5.9173 mm	r_ent = 0.0006 mm
Polynomial not fitted yet.
	r = 5.9204 mm	r_pe = 5.0000 mm	r_wax = 5.9204 mm	r_v = 5.9198 mm	r_ent = 0.0006 mm
Polynomial not fitted yet.
	r = 5.9229 mm	r_pe = 5.0000 mm	r_wax = 5.9229 mm	r_v = 5.9223 mm	r_ent = 0.0006 mm
Polynomial not fitted yet.
	r = 5.9254 mm	r_pe = 5.0000 mm	r_wax = 5.9254 mm	r_v = 5.9248 mm	r_ent = 0.0006 mm
Polynomial not fitted yet.
	r = 5.9281 mm	r_pe = 5.0000 mm	r_wax = 5.9281 mm	r_v = 5.9275 mm	r_ent = 0.0006 mm
Polynomial not fitted yet.
	r = 5.9306 mm	r_pe = 5.0000 mm	r_wax = 5.9306 mm	r_v = 5.9300 mm	r_ent = 0.0006 mm
Polynomial not fitted yet.
	r = 5.9332 mm	r_pe = 5.0000 mm	r_wax = 5.9332 mm	r_v = 5.9326 mm	r_ent = 0.0006 mm
Polynomial not fitted yet.
	r = 5.9357 mm	r_pe = 5.0000 mm	r_wax = 5.9357 mm	r_v = 5.9351 mm	r_ent = 0.0006 mm
Polynomial not fitted yet.
	r = 5.9383 mm	r_pe = 5.0000 mm	r_wax = 5.9383 mm	r_v = 5.9377 mm	r_ent = 0.0006 mm
Polynomial not fitted yet.
	r = 5.9408 mm	r_pe = 5.0000 mm	r_wax = 5.9408 mm	r_v = 5.9402 mm	r_ent = 0.0006 mm
Polynomial not fitted yet.
	r = 5.9433 mm	r_pe = 5.0000 mm	r_wax = 5.9433 mm	r_v = 5.9427 mm	r_ent = 0.0006 mm
Polynomial not fitted yet.
	r = 5.9458 mm	r_pe = 5.0000 mm	r_wax = 5.9458 mm	r_v = 5.9452 mm	r_ent = 0.0006 mm
Polynomial not fitted yet.
	r = 5.9484 mm	r_pe = 5.0000 mm	r_wax = 5.9484 mm	r_v = 5.9478 mm	r_ent = 0.0006 mm
Polynomial not fitted yet.
	r = 5.9509 mm	r_pe = 5.0000 mm	r_wax = 5.9509 mm	r_v = 5.9503 mm	r_ent = 0.0006 mm
Polynomial not fitted yet.
	r = 5.9535 mm	r_pe = 5.0000 mm	r_wax = 5.9535 mm	r_v = 5.9529 mm	r_ent = 0.0006 mm
Polynomial not fitted yet.
	r = 5.9562 mm	r_pe = 5.0000 mm	r_wax = 5.9562 mm	r_v = 5.9556 mm	r_ent = 0.0006 mm
Polynomial not fitted yet.
	r = 5.9589 mm	r_pe = 5.0000 mm	r_wax = 5.9589 mm	r_v = 5.9583 mm	r_ent = 0.0006 mm
Polynomial not fitted yet.
	r = 5.9615 mm	r_pe = 5.0000 mm	r_wax = 5.9615 mm	r_v = 5.9609 mm	r_ent = 0.0006 mm
Polynomial not fitted yet.
	r = 5.9642 mm	r_pe = 5.0000 mm	r_wax = 5.9642 mm	r_v = 5.9636 mm	r_ent = 0.0006 mm
Polynomial not fitted yet.
	r = 5.9669 mm	r_pe = 5.0000 mm	r_wax = 5.9669 mm	r_v = 5.9663 mm	r_ent = 0.0006 mm
Polynomial not fitted yet.
	r = 5.9696 mm	r_pe = 5.0000 mm	r_wax = 5.9696 mm	r_v = 5.9690 mm	r_ent = 0.0006 mm
Polynomial not fitted yet.
	r = 5.9722 mm	r_pe = 5.0000 mm	r_wax = 5.9722 mm	r_v = 5.9716 mm	r_ent = 0.0006 mm
Polynomial not fitted yet.
	r = 5.9749 mm	r_pe = 5.0000 mm	r_wax = 5.9749 mm	r_v = 5.9743 mm	r_ent = 0.0006 mm
Polynomial not fitted yet.
	r = 5.9775 mm	r_pe = 5.0000 mm	r_wax = 5.9775 mm	r_v = 5.9769 mm	r_ent = 0.0006 mm
Polynomial not fitted yet.
	r = 5.9802 mm	r_pe = 5.0000 mm	r_wax = 5.9802 mm	r_v = 5.9796 mm	r_ent = 0.0006 mm
Polynomial not fitted yet.
	r = 5.9827 mm	r_pe = 5.0000 mm	r_wax = 5.9827 mm	r_v = 5.9821 mm	r_ent = 0.0006 mm
Polynomial not fitted yet.
	r = 5.9853 mm	r_pe = 5.0000 mm	r_wax = 5.9853 mm	r_v = 5.9847 mm	r_ent = 0.0006 mm
Polynomial not fitted yet.
	r = 5.9879 mm	r_pe = 5.0000 mm	r_wax = 5.9879 mm	r_v = 5.9873 mm	r_ent = 0.0006 mm
Polynomial not fitted yet.
	r = 5.9904 mm	r_pe = 5.0000 mm	r_wax = 5.9904 mm	r_v = 5.9898 mm	r_ent = 0.0006 mm
Polynomial not fitted yet.
	r = 5.9929 mm	r_pe = 5.0000 mm	r_wax = 5.9929 mm	r_v = 5.9924 mm	r_ent = 0.0006 mm
Polynomial not fitted yet.
	r = 5.9954 mm	r_pe = 5.0000 mm	r_wax = 5.9954 mm	r_v = 5.9949 mm	r_ent = 0.0006 mm
Polynomial not fitted yet.
	r = 5.9978 mm	r_pe = 5.0000 mm	r_wax = 5.9978 mm	r_v = 5.9972 mm	r_ent = 0.0006 mm
Polynomial not fitted yet.
	r = 5.9999 mm	r_pe = 5.0000 mm	r_wax = 5.9999 mm	r_v = 5.9993 mm	r_ent = 0.0006 mm
Polynomial not fitted yet.
	r = 6.0021 mm	r_pe = 5.0000 mm	r_wax = 6.0021 mm	r_v = 6.0015 mm	r_ent = 0.0006 mm
Polynomial not fitted yet.
	r = 6.0045 mm	r_pe = 5.0000 mm	r_wax = 6.0045 mm	r_v = 6.0039 mm	r_ent = 0.0006 mm
Polynomial not fitted yet.
	r = 6.0069 mm	r_pe = 5.0000 mm	r_wax = 6.0069 mm	r_v = 6.0063 mm	r_ent = 0.0006 mm
Polynomial not fitted yet.
	r = 6.0093 mm	r_pe = 5.0000 mm	r_wax = 6.0093 mm	r_v = 6.0087 mm	r_ent = 0.0006 mm
Polynomial not fitted yet.
	r = 6.0117 mm	r_pe = 5.0000 mm	r_wax = 6.0117 mm	r_v = 6.0111 mm	r_ent = 0.0006 mm
Polynomial not fitted yet.
	r = 6.0142 mm	r_pe = 5.0000 mm	r_wax = 6.0142 mm	r_v = 6.0136 mm	r_ent = 0.0006 mm
Polynomial not fitted yet.
	r = 6.0165 mm	r_pe = 5.0000 mm	r_wax = 6.0165 mm	r_v = 6.0160 mm	r_ent = 0.0006 mm
Polynomial not fitted yet.
	r = 6.0190 mm	r_pe = 5.0000 mm	r_wax = 6.0190 mm	r_v = 6.0184 mm	r_ent = 0.0006 mm
Polynomial not fitted yet.
	r = 6.0215 mm	r_pe = 5.0000 mm	r_wax = 6.0215 mm	r_v = 6.0209 mm	r_ent = 0.0006 mm
Polynomial not fitted yet.
	r = 6.0239 mm	r_pe = 5.0000 mm	r_wax = 6.0239 mm	r_v = 6.0233 mm	r_ent = 0.0006 mm
Polynomial not fitted yet.
	r = 6.0264 mm	r_pe = 5.0000 mm	r_wax = 6.0264 mm	r_v = 6.0258 mm	r_ent = 0.0006 mm
Polynomial not fitted yet.
	r = 6.0288 mm	r_pe = 5.0000 mm	r_wax = 6.0288 mm	r_v = 6.0282 mm	r_ent = 0.0006 mm
Polynomial not fitted yet.
	r = 6.0312 mm	r_pe = 5.0000 mm	r_wax = 6.0312 mm	r_v = 6.0307 mm	r_ent = 0.0006 mm
Polynomial not fitted yet.
	r = 6.0336 mm	r_pe = 5.0000 mm	r_wax = 6.0336 mm	r_v = 6.0330 mm	r_ent = 0.0006 mm
Polynomial not fitted yet.
	r = 6.0359 mm	r_pe = 5.0000 mm	r_wax = 6.0359 mm	r_v = 6.0353 mm	r_ent = 0.0006 mm
Polynomial not fitted yet.
	r = 6.0382 mm	r_pe = 5.0000 mm	r_wax = 6.0382 mm	r_v = 6.0376 mm	r_ent = 0.0006 mm
Polynomial not fitted yet.
	r = 6.0404 mm	r_pe = 5.0000 mm	r_wax = 6.0404 mm	r_v = 6.0398 mm	r_ent = 0.0006 mm
Polynomial not fitted yet.
	r = 6.0424 mm	r_pe = 5.0000 mm	r_wax = 6.0424 mm	r_v = 6.0418 mm	r_ent = 0.0006 mm
Polynomial not fitted yet.
	r = 6.0444 mm	r_pe = 5.0000 mm	r_wax = 6.0444 mm	r_v = 6.0438 mm	r_ent = 0.0006 mm
Polynomial not fitted yet.
	r = 6.0464 mm	r_pe = 5.0000 mm	r_wax = 6.0464 mm	r_v = 6.0458 mm	r_ent = 0.0006 mm
Polynomial not fitted yet.
	r = 6.0485 mm	r_pe = 5.0000 mm	r_wax = 6.0485 mm	r_v = 6.0480 mm	r_ent = 0.0006 mm
Polynomial not fitted yet.
	r = 6.0505 mm	r_pe = 5.0000 mm	r_wax = 6.0505 mm	r_v = 6.0500 mm	r_ent = 0.0006 mm
Polynomial not fitted yet.
	r = 6.0527 mm	r_pe = 5.0000 mm	r_wax = 6.0527 mm	r_v = 6.0521 mm	r_ent = 0.0006 mm
Polynomial not fitted yet.
	r = 6.0548 mm	r_pe = 5.0000 mm	r_wax = 6.0548 mm	r_v = 6.0542 mm	r_ent = 0.0006 mm
Polynomial not fitted yet.
	r = 6.0569 mm	r_pe = 5.0000 mm	r_wax = 6.0569 mm	r_v = 6.0563 mm	r_ent = 0.0006 mm
Polynomial not fitted yet.
	r = 6.0589 mm	r_pe = 5.0000 mm	r_wax = 6.0589 mm	r_v = 6.0584 mm	r_ent = 0.0006 mm
Polynomial not fitted yet.
	r = 6.0611 mm	r_pe = 5.0000 mm	r_wax = 6.0611 mm	r_v = 6.0605 mm	r_ent = 0.0006 mm
Polynomial not fitted yet.
	r = 6.0631 mm	r_pe = 5.0000 mm	r_wax = 6.0631 mm	r_v = 6.0625 mm	r_ent = 0.0006 mm
Polynomial not fitted yet.
	r = 6.0652 mm	r_pe = 5.0000 mm	r_wax = 6.0652 mm	r_v = 6.0646 mm	r_ent = 0.0006 mm
Polynomial not fitted yet.
	r = 6.0671 mm	r_pe = 5.0000 mm	r_wax = 6.0671 mm	r_v = 6.0665 mm	r_ent = 0.0006 mm
Polynomial not fitted yet.
	r = 6.0691 mm	r_pe = 5.0000 mm	r_wax = 6.0691 mm	r_v = 6.0686 mm	r_ent = 0.0006 mm
Polynomial not fitted yet.
	r = 6.0710 mm	r_pe = 5.0000 mm	r_wax = 6.0710 mm	r_v = 6.0704 mm	r_ent = 0.0006 mm
Polynomial not fitted yet.
	r = 6.0731 mm	r_pe = 5.0000 mm	r_wax = 6.0731 mm	r_v = 6.0725 mm	r_ent = 0.0006 mm
Polynomial not fitted yet.
	r = 6.0750 mm	r_pe = 5.0000 mm	r_wax = 6.0750 mm	r_v = 6.0744 mm	r_ent = 0.0006 mm
Polynomial not fitted yet.
	r = 6.0770 mm	r_pe = 5.0000 mm	r_wax = 6.0770 mm	r_v = 6.0764 mm	r_ent = 0.0006 mm
Polynomial not fitted yet.
	r = 6.0780 mm	r_pe = 5.0000 mm	r_wax = 6.0780 mm	r_v = 6.0774 mm	r_ent = 0.0006 mm
Polynomial not fitted yet.
	r = 6.0791 mm	r_pe = 5.0000 mm	r_wax = 6.0791 mm	r_v = 6.0785 mm	r_ent = 0.0006 mm
Polynomial not fitted yet.
	r = 6.0796 mm	r_pe = 5.0000 mm	r_wax = 6.0796 mm	r_v = 6.0790 mm	r_ent = 0.0006 mm
Polynomial not fitted yet.
	r = 6.0808 mm	r_pe = 5.0000 mm	r_wax = 6.0808 mm	r_v = 6.0802 mm	r_ent = 0.0006 mm
Polynomial not fitted yet.
	r = 6.0816 mm	r_pe = 5.0000 mm	r_wax = 6.0816 mm	r_v = 6.0810 mm	r_ent = 0.0006 mm
Polynomial not fitted yet.
	r = 6.0829 mm	r_pe = 5.0000 mm	r_wax = 6.0829 mm	r_v = 6.0824 mm	r_ent = 0.0006 mm
Polynomial not fitted yet.
	r = 6.0839 mm	r_pe = 5.0000 mm	r_wax = 6.0839 mm	r_v = 6.0834 mm	r_ent = 0.0006 mm
Polynomial not fitted yet.
	r = 6.0854 mm	r_pe = 5.0000 mm	r_wax = 6.0854 mm	r_v = 6.0849 mm	r_ent = 0.0006 mm
Polynomial not fitted yet.
	r = 6.0865 mm	r_pe = 5.0000 mm	r_wax = 6.0865 mm	r_v = 6.0859 mm	r_ent = 0.0006 mm
Polynomial not fitted yet.
	r = 6.0880 mm	r_pe = 5.0000 mm	r_wax = 6.0880 mm	r_v = 6.0874 mm	r_ent = 0.0006 mm
Polynomial not fitted yet.
	r = 6.0888 mm	r_pe = 5.0000 mm	r_wax = 6.0888 mm	r_v = 6.0883 mm	r_ent = 0.0006 mm
Polynomial not fitted yet.
	r = 6.0904 mm	r_pe = 5.0000 mm	r_wax = 6.0904 mm	r_v = 6.0898 mm	r_ent = 0.0006 mm
Polynomial not fitted yet.
	r = 6.0913 mm	r_pe = 5.0000 mm	r_wax = 6.0913 mm	r_v = 6.0908 mm	r_ent = 0.0006 mm
Polynomial not fitted yet.
	r = 6.0929 mm	r_pe = 5.0000 mm	r_wax = 6.0929 mm	r_v = 6.0923 mm	r_ent = 0.0006 mm
Polynomial not fitted yet.
	r = 6.0938 mm	r_pe = 5.0000 mm	r_wax = 6.0938 mm	r_v = 6.0932 mm	r_ent = 0.0006 mm
Polynomial not fitted yet.
	r = 6.0953 mm	r_pe = 5.0000 mm	r_wax = 6.0953 mm	r_v = 6.0947 mm	r_ent = 0.0006 mm
Polynomial not fitted yet.
	r = 6.0962 mm	r_pe = 5.0000 mm	r_wax = 6.0962 mm	r_v = 6.0956 mm	r_ent = 0.0006 mm
Polynomial not fitted yet.
	r = 6.0974 mm	r_pe = 5.0000 mm	r_wax = 6.0974 mm	r_v = 6.0968 mm	r_ent = 0.0006 mm
Polynomial not fitted yet.
	r = 6.0981 mm	r_pe = 5.0000 mm	r_wax = 6.0981 mm	r_v = 6.0975 mm	r_ent = 0.0006 mm
Polynomial not fitted yet.
	r = 6.0990 mm	r_pe = 5.0000 mm	r_wax = 6.0990 mm	r_v = 6.0985 mm	r_ent = 0.0006 mm
Polynomial not fitted yet.
	r = 6.0991 mm	r_pe = 5.0000 mm	r_wax = 6.0991 mm	r_v = 6.0985 mm	r_ent = 0.0006 mm
Polynomial not fitted yet.
	r = 6.0980 mm	r_pe = 5.0000 mm	r_wax = 6.0980 mm	r_v = 6.0974 mm	r_ent = 0.0006 mm
Done.

Writing to LLG-WS:"F:\pyFluent\workspace\DMP-test-1\Data\base.dat.h5" in NODE0 mode and compression level 1 ...
  Writing results.

  Writing UDM Node Data ...
  Done.
Done.

LLG-WS: Opening library "D:\\Workshop\\Workbench\\DPM\\dpm-v1-1_files\\dp0\\FLU-4\\Fluent\\dpm-test-udf\\libudf"...
Done.
You need to define up to 60 extra UDMs in GUI and then reload current library libudf
60 UDMs have been reserved by the current library libudf

UDM Offset for Current Loaded Library = -1

=====================================================

LLG-WS: Opening library "F:\\pyFluent\\workspace\\DMP-test-1\\libudf"...
	rename_udm
	Grid_Motion
	init_paraffin_from_surface
	paraffin_pyrolysis_law
	paraffin_pyrolysis_source
	dpm_switch
	filter_and_remove
	limit_to_e_minus_four
	fuel_wall_temperature
	Enable_Ent_Source
	Disable_Ent_Source
	Fit_Mass_Flow_Function_Fast
	Fit_Mass_Flow_Function
	Print_Mass_Flow_Function
	Total_Mass_Source
	X_Mom_Source
	Y_Mom_Source
	Z_Mom_Source
	C2H4_Mass_Source
	H2_Mass_Source
	Energy_Source_t
	Non_Source
	Vari_Source
	Constan_Sources
	Cal_Rho_Gas
	set_r_to

UDF Autorun:
rename_udm
You need to define up to 60 extra UDMs in GUI and then reload current library libudf
60 UDMs have been reserved by the current library libudf

UDM Offset for Current Loaded Library = -1

=====================================================

Done.
You need to define up to 60 extra UDMs in GUI and then reload current library libudf
60 UDMs have been reserved by the current library libudf

UDM Offset for Current Loaded Library = -1

=====================================================
You need to define up to 60 extra UDMs in GUI and then reload current library libudf
60 UDMs have been reserved by the current library libudf

UDM Offset for Current Loaded Library = -1

=====================================================
You need to define up to 60 extra UDMs in GUI and then reload current library libudf
60 UDMs have been reserved by the current library libudf

UDM Offset for Current Loaded Library = -1

=====================================================
You need to define up to 60 extra UDMs in GUI and then reload current library libudf
60 UDMs have been reserved by the current library libudf

UDM Offset for Current Loaded Library = -1

=====================================================
You need to define up to 60 extra UDMs in GUI and then reload current library libudf
60 UDMs have been reserved by the current library libudf

UDM Offset for Current Loaded Library = -1

=====================================================
You need to define up to 60 extra UDMs in GUI and then reload current library libudf
60 UDMs have been reserved by the current library libudf

UDM Offset for Current Loaded Library = -1

=====================================================
You need to define up to 60 extra UDMs in GUI and then reload current library libudf
60 UDMs have been reserved by the current library libudf

UDM Offset for Current Loaded Library = -1

=====================================================
You need to define up to 60 extra UDMs in GUI and then reload current library libudf
60 UDMs have been reserved by the current library libudf

UDM Offset for Current Loaded Library = -1

=====================================================
You need to define up to 60 extra UDMs in GUI and then reload current library libudf
60 UDMs have been reserved by the current library libudf

UDM Offset for Current Loaded Library = -1

=====================================================
You need to define up to 60 extra UDMs in GUI and then reload current library libudf
60 UDMs have been reserved by the current library libudf

UDM Offset for Current Loaded Library = -1

=====================================================
You need to define up to 60 extra UDMs in GUI and then reload current library libudf
60 UDMs have been reserved by the current library libudf

UDM Offset for Current Loaded Library = -1

=====================================================
You need to define up to 60 extra UDMs in GUI and then reload current library libudf
60 UDMs have been reserved by the current library libudf

UDM Offset for Current Loaded Library = -1

=====================================================
You need to define up to 60 extra UDMs in GUI and then reload current library libudf
60 UDMs have been reserved by the current library libudf

UDM Offset for Current Loaded Library = -1

=====================================================
You need to define up to 60 extra UDMs in GUI and then reload current library libudf
60 UDMs have been reserved by the current library libudf

UDM Offset for Current Loaded Library = -1

=====================================================
You need to define up to 60 extra UDMs in GUI and then reload current library libudf
60 UDMs have been reserved by the current library libudf

UDM Offset for Current Loaded Library = -1

=====================================================
You need to define up to 60 extra UDMs in GUI and then reload current library libudf
60 UDMs have been reserved by the current library libudf

UDM Offset for Current Loaded Library = -1

=====================================================
You need to define up to 60 extra UDMs in GUI and then reload current library libudf
60 UDMs have been reserved by the current library libudf

UDM Offset for Current Loaded Library = -1

=====================================================
/exit y
(cx-gui-do cx-activate-item "Question*OK")
Shutting down Server...
Services Shutdown...Done.
Server Shutdown...Done.
Queue Cleared...Done.
Shutdown Complete.
Auto-Transcript Stop Time:  18:13:37, 19 Mar 2026 笢弊梓袧奀潔 
Total Transcript Time: 1 Hour 17 Minute 43 Second.
